 demo                      SWAT+ 2024-08-27        MODULAR Rev 2024.61.0.1-33-g68b1328                    
                                        zmx       usle_k       sumfc       sumul      usle_p     usle_ls        esco        epco     cn3_swf       perco     latq_co   tiledrain 
 sname           hydgrp                 (mm)                    (mm)        (mm)                                                                                     0=notile;1=tile;
soil_01         B                  2000.0000      0.0000    361.5000    616.1781      1.0000      0.3638      0.9500      1.0000      0.0000      0.5000      0.0100           0
soil_02         B                  2000.0000      0.0000    361.5000    445.6733      1.0000      0.3638      0.9500      1.0000      0.0000      0.5000      0.0100           0
soil_03         B                  2000.0000      0.0000    361.5000    610.4111      1.0000      0.3638      0.9500      1.0000      0.0000      0.5000      0.0100           0
soil_04         B                  2000.0000      0.0000    361.5000    603.7214      1.0000      0.3638      0.9500      1.0000      0.0000      0.5000      0.0100           0
soil_05         B                  2000.0000      0.0000    361.5000    605.6591      1.0000      0.3638      0.9500      1.0000      0.0000      0.5000      0.0100           0
soil_06         B                  2000.0000      0.0000    361.5000    597.7238      1.0000      0.3638      0.9500      1.0000      0.0000      0.0500      0.0100           0
soil_07         B                  2000.0000      0.0000    361.5000    619.8690      1.0000      0.3638      0.9500      1.0000      0.0000      0.5000      0.0100           0
soil_08         B                  2000.0000      0.0000    361.5000    519.7214      1.0000      0.3638      0.9500      1.0000      0.0000      0.5000      0.0100           0
soil_09         B                  2000.0000      0.0000    361.5000    591.4954      1.0000      0.3638      0.9500      1.0000      0.0000      0.5000      0.0100           0
soil_10         B                  2000.0000      0.0000    361.5000    556.6756      1.0000      0.3638      0.9500      1.0000      0.0000      0.5000      0.0100           0
soil_11         B                  2000.0000      0.0000    361.5000    465.0047      1.0000      0.3638      0.9500      1.0000      0.0000      0.5000      0.0100           0
soil_12         B                  2000.0000      0.0000    361.5000    539.5131      1.0000      0.3638      0.9500      1.0000      0.0000      0.0500      0.0100           0
