 demo                      SWAT+ 2024-08-27        MODULAR Rev 2024.61.0.1-33-g68b1328                    
    hrueventssedyldprecippeak_ratek_factor      slope          length   ls_factor    p_factor    c_factor       rsd_m  rsd_pctcov    rsd_cfac    can_lai3    can_hgt     can_cfac 
               t/ha    mm    m3/s                m/m               m                                           kg/ha     percent                                   m             
