 demo                      SWAT+ 2024-07-08        MODULAR Rev 2024.unknown                               
            e     s     p  peak_r   k_fac      slope          length   ls_factor    p_factor    c_factor       rsd_m  rsd_pctcov    rsd_cfac    can_lai3    can_hgt     can_cfac 
                                m                m/m               m                                           kg/ha     percent                                   m             
