 demo                      SWAT+ 2025-02-26        MODULAR Rev 2025.unknown                               
    hrueventssedyldprecippeak_ratek_factor      slope          length   ls_factor    p_factor    c_factor       rsd_m  rsd_pctcov    rsd_cfac    can_lai3    can_hgt     can_cfac 
               t/ha    mm    m3/s                m/m               m                                           kg/ha     percent                                   m             
