                   SWAT+               
             Revision 61.0.1-33-g68b1328  
      Soil & Water Assessment Tool    
IntelLLVM (2024.0.0), 2024-08-27 08:49:23, Linux
    Program reading . . . executing


  Date of Sim   8/27/2024 Time   8:49:51
 reading from pet file                   Time   8:49:51
 reading from precipitation file         Time   8:49:51
 reading from temperature file           Time   8:49:51
 reading from solar radiation file       Time   8:49:51
 reading from relative humidity file     Time   8:49:51
 reading from wind file                  Time   8:49:51
 reading from wgn file                   Time   8:49:51
 reading from wx station file            Time   8:49:51
  Original Simulation        1   1  1975 Yr    1 of   46 Time   8:49:51
  Original Simulation        1   2  1975 Yr    1 of   46 Time   8:49:51
  Original Simulation        1   3  1975 Yr    1 of   46 Time   8:49:51
  Original Simulation        1   4  1975 Yr    1 of   46 Time   8:49:51
  Original Simulation        1   5  1975 Yr    1 of   46 Time   8:49:51
  Original Simulation        1   6  1975 Yr    1 of   46 Time   8:49:51
  Original Simulation        1   7  1975 Yr    1 of   46 Time   8:49:51
  Original Simulation        1   8  1975 Yr    1 of   46 Time   8:49:51
  Original Simulation        1   9  1975 Yr    1 of   46 Time   8:49:51
  Original Simulation        1  10  1975 Yr    1 of   46 Time   8:49:51
  Original Simulation        1  11  1975 Yr    1 of   46 Time   8:49:51
  Original Simulation        1  12  1975 Yr    1 of   46 Time   8:49:51
  Original Simulation        1  13  1975 Yr    1 of   46 Time   8:49:51
  Original Simulation        1  14  1975 Yr    1 of   46 Time   8:49:51
  Original Simulation        1  15  1975 Yr    1 of   46 Time   8:49:51
  Original Simulation        1  16  1975 Yr    1 of   46 Time   8:49:51
  Original Simulation        1  17  1975 Yr    1 of   46 Time   8:49:51
  Original Simulation        1  18  1975 Yr    1 of   46 Time   8:49:51
  Original Simulation        1  19  1975 Yr    1 of   46 Time   8:49:51
  Original Simulation        1  20  1975 Yr    1 of   46 Time   8:49:51
  Original Simulation        1  21  1975 Yr    1 of   46 Time   8:49:51
  Original Simulation        1  22  1975 Yr    1 of   46 Time   8:49:51
  Original Simulation        1  23  1975 Yr    1 of   46 Time   8:49:51
  Original Simulation        1  24  1975 Yr    1 of   46 Time   8:49:51
  Original Simulation        1  25  1975 Yr    1 of   46 Time   8:49:51
  Original Simulation        1  26  1975 Yr    1 of   46 Time   8:49:51
  Original Simulation        1  27  1975 Yr    1 of   46 Time   8:49:51
  Original Simulation        1  28  1975 Yr    1 of   46 Time   8:49:51
  Original Simulation        1  29  1975 Yr    1 of   46 Time   8:49:51
  Original Simulation        1  30  1975 Yr    1 of   46 Time   8:49:51
  Original Simulation        1  31  1975 Yr    1 of   46 Time   8:49:51
  Original Simulation        2   1  1975 Yr    1 of   46 Time   8:49:51
  Original Simulation        2   2  1975 Yr    1 of   46 Time   8:49:51
  Original Simulation        2   3  1975 Yr    1 of   46 Time   8:49:51
  Original Simulation        2   4  1975 Yr    1 of   46 Time   8:49:51
  Original Simulation        2   5  1975 Yr    1 of   46 Time   8:49:51
  Original Simulation        2   6  1975 Yr    1 of   46 Time   8:49:51
  Original Simulation        2   7  1975 Yr    1 of   46 Time   8:49:51
  Original Simulation        2   8  1975 Yr    1 of   46 Time   8:49:51
  Original Simulation        2   9  1975 Yr    1 of   46 Time   8:49:51
  Original Simulation        2  10  1975 Yr    1 of   46 Time   8:49:51
  Original Simulation        2  11  1975 Yr    1 of   46 Time   8:49:51
  Original Simulation        2  12  1975 Yr    1 of   46 Time   8:49:51
  Original Simulation        2  13  1975 Yr    1 of   46 Time   8:49:51
  Original Simulation        2  14  1975 Yr    1 of   46 Time   8:49:51
  Original Simulation        2  15  1975 Yr    1 of   46 Time   8:49:51
  Original Simulation        2  16  1975 Yr    1 of   46 Time   8:49:51
  Original Simulation        2  17  1975 Yr    1 of   46 Time   8:49:51
  Original Simulation        2  18  1975 Yr    1 of   46 Time   8:49:51
  Original Simulation        2  19  1975 Yr    1 of   46 Time   8:49:51
  Original Simulation        2  20  1975 Yr    1 of   46 Time   8:49:51
  Original Simulation        2  21  1975 Yr    1 of   46 Time   8:49:51
  Original Simulation        2  22  1975 Yr    1 of   46 Time   8:49:51
  Original Simulation        2  23  1975 Yr    1 of   46 Time   8:49:51
  Original Simulation        2  24  1975 Yr    1 of   46 Time   8:49:51
  Original Simulation        2  25  1975 Yr    1 of   46 Time   8:49:51
  Original Simulation        2  26  1975 Yr    1 of   46 Time   8:49:51
  Original Simulation        2  27  1975 Yr    1 of   46 Time   8:49:51
  Original Simulation        2  28  1975 Yr    1 of   46 Time   8:49:51
  Original Simulation        3   1  1975 Yr    1 of   46 Time   8:49:51
  Original Simulation        3   2  1975 Yr    1 of   46 Time   8:49:51
  Original Simulation        3   3  1975 Yr    1 of   46 Time   8:49:51
  Original Simulation        3   4  1975 Yr    1 of   46 Time   8:49:51
  Original Simulation        3   5  1975 Yr    1 of   46 Time   8:49:51
  Original Simulation        3   6  1975 Yr    1 of   46 Time   8:49:51
  Original Simulation        3   7  1975 Yr    1 of   46 Time   8:49:51
  Original Simulation        3   8  1975 Yr    1 of   46 Time   8:49:51
  Original Simulation        3   9  1975 Yr    1 of   46 Time   8:49:51
  Original Simulation        3  10  1975 Yr    1 of   46 Time   8:49:51
  Original Simulation        3  11  1975 Yr    1 of   46 Time   8:49:51
  Original Simulation        3  12  1975 Yr    1 of   46 Time   8:49:51
  Original Simulation        3  13  1975 Yr    1 of   46 Time   8:49:51
  Original Simulation        3  14  1975 Yr    1 of   46 Time   8:49:51
  Original Simulation        3  15  1975 Yr    1 of   46 Time   8:49:51
  Original Simulation        3  16  1975 Yr    1 of   46 Time   8:49:51
  Original Simulation        3  17  1975 Yr    1 of   46 Time   8:49:51
  Original Simulation        3  18  1975 Yr    1 of   46 Time   8:49:51
  Original Simulation        3  19  1975 Yr    1 of   46 Time   8:49:51
  Original Simulation        3  20  1975 Yr    1 of   46 Time   8:49:51
  Original Simulation        3  21  1975 Yr    1 of   46 Time   8:49:51
  Original Simulation        3  22  1975 Yr    1 of   46 Time   8:49:51
  Original Simulation        3  23  1975 Yr    1 of   46 Time   8:49:51
  Original Simulation        3  24  1975 Yr    1 of   46 Time   8:49:51
  Original Simulation        3  25  1975 Yr    1 of   46 Time   8:49:51
  Original Simulation        3  26  1975 Yr    1 of   46 Time   8:49:51
  Original Simulation        3  27  1975 Yr    1 of   46 Time   8:49:51
  Original Simulation        3  28  1975 Yr    1 of   46 Time   8:49:51
  Original Simulation        3  29  1975 Yr    1 of   46 Time   8:49:51
  Original Simulation        3  30  1975 Yr    1 of   46 Time   8:49:51
  Original Simulation        3  31  1975 Yr    1 of   46 Time   8:49:51
  Original Simulation        4   1  1975 Yr    1 of   46 Time   8:49:51
  Original Simulation        4   2  1975 Yr    1 of   46 Time   8:49:51
  Original Simulation        4   3  1975 Yr    1 of   46 Time   8:49:51
  Original Simulation        4   4  1975 Yr    1 of   46 Time   8:49:51
  Original Simulation        4   5  1975 Yr    1 of   46 Time   8:49:51
  Original Simulation        4   6  1975 Yr    1 of   46 Time   8:49:51
  Original Simulation        4   7  1975 Yr    1 of   46 Time   8:49:51
  Original Simulation        4   8  1975 Yr    1 of   46 Time   8:49:51
  Original Simulation        4   9  1975 Yr    1 of   46 Time   8:49:51
  Original Simulation        4  10  1975 Yr    1 of   46 Time   8:49:51
  Original Simulation        4  11  1975 Yr    1 of   46 Time   8:49:51
  Original Simulation        4  12  1975 Yr    1 of   46 Time   8:49:51
  Original Simulation        4  13  1975 Yr    1 of   46 Time   8:49:51
  Original Simulation        4  14  1975 Yr    1 of   46 Time   8:49:51
  Original Simulation        4  15  1975 Yr    1 of   46 Time   8:49:51
  Original Simulation        4  16  1975 Yr    1 of   46 Time   8:49:51
  Original Simulation        4  17  1975 Yr    1 of   46 Time   8:49:51
  Original Simulation        4  18  1975 Yr    1 of   46 Time   8:49:51
  Original Simulation        4  19  1975 Yr    1 of   46 Time   8:49:51
  Original Simulation        4  20  1975 Yr    1 of   46 Time   8:49:51
  Original Simulation        4  21  1975 Yr    1 of   46 Time   8:49:51
  Original Simulation        4  22  1975 Yr    1 of   46 Time   8:49:51
  Original Simulation        4  23  1975 Yr    1 of   46 Time   8:49:51
  Original Simulation        4  24  1975 Yr    1 of   46 Time   8:49:51
  Original Simulation        4  25  1975 Yr    1 of   46 Time   8:49:51
  Original Simulation        4  26  1975 Yr    1 of   46 Time   8:49:51
  Original Simulation        4  27  1975 Yr    1 of   46 Time   8:49:51
  Original Simulation        4  28  1975 Yr    1 of   46 Time   8:49:51
  Original Simulation        4  29  1975 Yr    1 of   46 Time   8:49:51
  Original Simulation        4  30  1975 Yr    1 of   46 Time   8:49:51
  Original Simulation        5   1  1975 Yr    1 of   46 Time   8:49:51
  Original Simulation        5   2  1975 Yr    1 of   46 Time   8:49:51
  Original Simulation        5   3  1975 Yr    1 of   46 Time   8:49:51
  Original Simulation        5   4  1975 Yr    1 of   46 Time   8:49:51
  Original Simulation        5   5  1975 Yr    1 of   46 Time   8:49:51
  Original Simulation        5   6  1975 Yr    1 of   46 Time   8:49:51
  Original Simulation        5   7  1975 Yr    1 of   46 Time   8:49:51
  Original Simulation        5   8  1975 Yr    1 of   46 Time   8:49:51
  Original Simulation        5   9  1975 Yr    1 of   46 Time   8:49:51
  Original Simulation        5  10  1975 Yr    1 of   46 Time   8:49:51
  Original Simulation        5  11  1975 Yr    1 of   46 Time   8:49:51
  Original Simulation        5  12  1975 Yr    1 of   46 Time   8:49:51
  Original Simulation        5  13  1975 Yr    1 of   46 Time   8:49:51
  Original Simulation        5  14  1975 Yr    1 of   46 Time   8:49:51
  Original Simulation        5  15  1975 Yr    1 of   46 Time   8:49:51
  Original Simulation        5  16  1975 Yr    1 of   46 Time   8:49:51
  Original Simulation        5  17  1975 Yr    1 of   46 Time   8:49:51
  Original Simulation        5  18  1975 Yr    1 of   46 Time   8:49:51
  Original Simulation        5  19  1975 Yr    1 of   46 Time   8:49:51
  Original Simulation        5  20  1975 Yr    1 of   46 Time   8:49:51
  Original Simulation        5  21  1975 Yr    1 of   46 Time   8:49:51
  Original Simulation        5  22  1975 Yr    1 of   46 Time   8:49:51
  Original Simulation        5  23  1975 Yr    1 of   46 Time   8:49:51
  Original Simulation        5  24  1975 Yr    1 of   46 Time   8:49:51
  Original Simulation        5  25  1975 Yr    1 of   46 Time   8:49:51
  Original Simulation        5  26  1975 Yr    1 of   46 Time   8:49:51
  Original Simulation        5  27  1975 Yr    1 of   46 Time   8:49:51
  Original Simulation        5  28  1975 Yr    1 of   46 Time   8:49:51
  Original Simulation        5  29  1975 Yr    1 of   46 Time   8:49:51
  Original Simulation        5  30  1975 Yr    1 of   46 Time   8:49:51
  Original Simulation        5  31  1975 Yr    1 of   46 Time   8:49:51
  Original Simulation        6   1  1975 Yr    1 of   46 Time   8:49:51
  Original Simulation        6   2  1975 Yr    1 of   46 Time   8:49:51
  Original Simulation        6   3  1975 Yr    1 of   46 Time   8:49:51
  Original Simulation        6   4  1975 Yr    1 of   46 Time   8:49:51
  Original Simulation        6   5  1975 Yr    1 of   46 Time   8:49:51
  Original Simulation        6   6  1975 Yr    1 of   46 Time   8:49:51
  Original Simulation        6   7  1975 Yr    1 of   46 Time   8:49:51
  Original Simulation        6   8  1975 Yr    1 of   46 Time   8:49:51
  Original Simulation        6   9  1975 Yr    1 of   46 Time   8:49:51
  Original Simulation        6  10  1975 Yr    1 of   46 Time   8:49:51
  Original Simulation        6  11  1975 Yr    1 of   46 Time   8:49:51
  Original Simulation        6  12  1975 Yr    1 of   46 Time   8:49:51
  Original Simulation        6  13  1975 Yr    1 of   46 Time   8:49:51
  Original Simulation        6  14  1975 Yr    1 of   46 Time   8:49:51
  Original Simulation        6  15  1975 Yr    1 of   46 Time   8:49:51
  Original Simulation        6  16  1975 Yr    1 of   46 Time   8:49:51
  Original Simulation        6  17  1975 Yr    1 of   46 Time   8:49:51
  Original Simulation        6  18  1975 Yr    1 of   46 Time   8:49:51
  Original Simulation        6  19  1975 Yr    1 of   46 Time   8:49:51
  Original Simulation        6  20  1975 Yr    1 of   46 Time   8:49:51
  Original Simulation        6  21  1975 Yr    1 of   46 Time   8:49:51
  Original Simulation        6  22  1975 Yr    1 of   46 Time   8:49:51
  Original Simulation        6  23  1975 Yr    1 of   46 Time   8:49:51
  Original Simulation        6  24  1975 Yr    1 of   46 Time   8:49:51
  Original Simulation        6  25  1975 Yr    1 of   46 Time   8:49:51
  Original Simulation        6  26  1975 Yr    1 of   46 Time   8:49:51
  Original Simulation        6  27  1975 Yr    1 of   46 Time   8:49:51
  Original Simulation        6  28  1975 Yr    1 of   46 Time   8:49:51
  Original Simulation        6  29  1975 Yr    1 of   46 Time   8:49:51
  Original Simulation        6  30  1975 Yr    1 of   46 Time   8:49:51
  Original Simulation        7   1  1975 Yr    1 of   46 Time   8:49:51
  Original Simulation        7   2  1975 Yr    1 of   46 Time   8:49:51
  Original Simulation        7   3  1975 Yr    1 of   46 Time   8:49:51
  Original Simulation        7   4  1975 Yr    1 of   46 Time   8:49:51
  Original Simulation        7   5  1975 Yr    1 of   46 Time   8:49:51
  Original Simulation        7   6  1975 Yr    1 of   46 Time   8:49:51
  Original Simulation        7   7  1975 Yr    1 of   46 Time   8:49:51
  Original Simulation        7   8  1975 Yr    1 of   46 Time   8:49:51
  Original Simulation        7   9  1975 Yr    1 of   46 Time   8:49:51
  Original Simulation        7  10  1975 Yr    1 of   46 Time   8:49:51
  Original Simulation        7  11  1975 Yr    1 of   46 Time   8:49:51
  Original Simulation        7  12  1975 Yr    1 of   46 Time   8:49:51
  Original Simulation        7  13  1975 Yr    1 of   46 Time   8:49:51
  Original Simulation        7  14  1975 Yr    1 of   46 Time   8:49:51
  Original Simulation        7  15  1975 Yr    1 of   46 Time   8:49:51
  Original Simulation        7  16  1975 Yr    1 of   46 Time   8:49:51
  Original Simulation        7  17  1975 Yr    1 of   46 Time   8:49:51
  Original Simulation        7  18  1975 Yr    1 of   46 Time   8:49:51
  Original Simulation        7  19  1975 Yr    1 of   46 Time   8:49:51
  Original Simulation        7  20  1975 Yr    1 of   46 Time   8:49:51
  Original Simulation        7  21  1975 Yr    1 of   46 Time   8:49:51
  Original Simulation        7  22  1975 Yr    1 of   46 Time   8:49:51
  Original Simulation        7  23  1975 Yr    1 of   46 Time   8:49:51
  Original Simulation        7  24  1975 Yr    1 of   46 Time   8:49:51
  Original Simulation        7  25  1975 Yr    1 of   46 Time   8:49:51
  Original Simulation        7  26  1975 Yr    1 of   46 Time   8:49:51
  Original Simulation        7  27  1975 Yr    1 of   46 Time   8:49:51
  Original Simulation        7  28  1975 Yr    1 of   46 Time   8:49:51
  Original Simulation        7  29  1975 Yr    1 of   46 Time   8:49:51
  Original Simulation        7  30  1975 Yr    1 of   46 Time   8:49:51
  Original Simulation        7  31  1975 Yr    1 of   46 Time   8:49:51
  Original Simulation        8   1  1975 Yr    1 of   46 Time   8:49:51
  Original Simulation        8   2  1975 Yr    1 of   46 Time   8:49:51
  Original Simulation        8   3  1975 Yr    1 of   46 Time   8:49:51
  Original Simulation        8   4  1975 Yr    1 of   46 Time   8:49:51
  Original Simulation        8   5  1975 Yr    1 of   46 Time   8:49:51
  Original Simulation        8   6  1975 Yr    1 of   46 Time   8:49:51
  Original Simulation        8   7  1975 Yr    1 of   46 Time   8:49:51
  Original Simulation        8   8  1975 Yr    1 of   46 Time   8:49:51
  Original Simulation        8   9  1975 Yr    1 of   46 Time   8:49:51
  Original Simulation        8  10  1975 Yr    1 of   46 Time   8:49:51
  Original Simulation        8  11  1975 Yr    1 of   46 Time   8:49:51
  Original Simulation        8  12  1975 Yr    1 of   46 Time   8:49:51
  Original Simulation        8  13  1975 Yr    1 of   46 Time   8:49:51
  Original Simulation        8  14  1975 Yr    1 of   46 Time   8:49:51
  Original Simulation        8  15  1975 Yr    1 of   46 Time   8:49:51
  Original Simulation        8  16  1975 Yr    1 of   46 Time   8:49:51
  Original Simulation        8  17  1975 Yr    1 of   46 Time   8:49:51
  Original Simulation        8  18  1975 Yr    1 of   46 Time   8:49:51
  Original Simulation        8  19  1975 Yr    1 of   46 Time   8:49:51
  Original Simulation        8  20  1975 Yr    1 of   46 Time   8:49:51
  Original Simulation        8  21  1975 Yr    1 of   46 Time   8:49:51
  Original Simulation        8  22  1975 Yr    1 of   46 Time   8:49:51
  Original Simulation        8  23  1975 Yr    1 of   46 Time   8:49:51
  Original Simulation        8  24  1975 Yr    1 of   46 Time   8:49:51
  Original Simulation        8  25  1975 Yr    1 of   46 Time   8:49:51
  Original Simulation        8  26  1975 Yr    1 of   46 Time   8:49:51
  Original Simulation        8  27  1975 Yr    1 of   46 Time   8:49:51
  Original Simulation        8  28  1975 Yr    1 of   46 Time   8:49:51
  Original Simulation        8  29  1975 Yr    1 of   46 Time   8:49:51
  Original Simulation        8  30  1975 Yr    1 of   46 Time   8:49:51
  Original Simulation        8  31  1975 Yr    1 of   46 Time   8:49:51
  Original Simulation        9   1  1975 Yr    1 of   46 Time   8:49:51
  Original Simulation        9   2  1975 Yr    1 of   46 Time   8:49:51
  Original Simulation        9   3  1975 Yr    1 of   46 Time   8:49:51
  Original Simulation        9   4  1975 Yr    1 of   46 Time   8:49:51
  Original Simulation        9   5  1975 Yr    1 of   46 Time   8:49:51
  Original Simulation        9   6  1975 Yr    1 of   46 Time   8:49:51
  Original Simulation        9   7  1975 Yr    1 of   46 Time   8:49:51
  Original Simulation        9   8  1975 Yr    1 of   46 Time   8:49:51
  Original Simulation        9   9  1975 Yr    1 of   46 Time   8:49:51
  Original Simulation        9  10  1975 Yr    1 of   46 Time   8:49:51
  Original Simulation        9  11  1975 Yr    1 of   46 Time   8:49:51
  Original Simulation        9  12  1975 Yr    1 of   46 Time   8:49:51
  Original Simulation        9  13  1975 Yr    1 of   46 Time   8:49:51
  Original Simulation        9  14  1975 Yr    1 of   46 Time   8:49:51
  Original Simulation        9  15  1975 Yr    1 of   46 Time   8:49:51
  Original Simulation        9  16  1975 Yr    1 of   46 Time   8:49:51
  Original Simulation        9  17  1975 Yr    1 of   46 Time   8:49:51
  Original Simulation        9  18  1975 Yr    1 of   46 Time   8:49:51
  Original Simulation        9  19  1975 Yr    1 of   46 Time   8:49:51
  Original Simulation        9  20  1975 Yr    1 of   46 Time   8:49:51
  Original Simulation        9  21  1975 Yr    1 of   46 Time   8:49:51
  Original Simulation        9  22  1975 Yr    1 of   46 Time   8:49:51
  Original Simulation        9  23  1975 Yr    1 of   46 Time   8:49:51
  Original Simulation        9  24  1975 Yr    1 of   46 Time   8:49:51
  Original Simulation        9  25  1975 Yr    1 of   46 Time   8:49:51
  Original Simulation        9  26  1975 Yr    1 of   46 Time   8:49:51
  Original Simulation        9  27  1975 Yr    1 of   46 Time   8:49:51
  Original Simulation        9  28  1975 Yr    1 of   46 Time   8:49:51
  Original Simulation        9  29  1975 Yr    1 of   46 Time   8:49:51
  Original Simulation        9  30  1975 Yr    1 of   46 Time   8:49:51
  Original Simulation       10   1  1975 Yr    1 of   46 Time   8:49:51
  Original Simulation       10   2  1975 Yr    1 of   46 Time   8:49:51
  Original Simulation       10   3  1975 Yr    1 of   46 Time   8:49:51
  Original Simulation       10   4  1975 Yr    1 of   46 Time   8:49:51
  Original Simulation       10   5  1975 Yr    1 of   46 Time   8:49:51
  Original Simulation       10   6  1975 Yr    1 of   46 Time   8:49:51
  Original Simulation       10   7  1975 Yr    1 of   46 Time   8:49:51
  Original Simulation       10   8  1975 Yr    1 of   46 Time   8:49:51
  Original Simulation       10   9  1975 Yr    1 of   46 Time   8:49:51
  Original Simulation       10  10  1975 Yr    1 of   46 Time   8:49:51
  Original Simulation       10  11  1975 Yr    1 of   46 Time   8:49:51
  Original Simulation       10  12  1975 Yr    1 of   46 Time   8:49:51
  Original Simulation       10  13  1975 Yr    1 of   46 Time   8:49:51
  Original Simulation       10  14  1975 Yr    1 of   46 Time   8:49:51
  Original Simulation       10  15  1975 Yr    1 of   46 Time   8:49:51
  Original Simulation       10  16  1975 Yr    1 of   46 Time   8:49:51
  Original Simulation       10  17  1975 Yr    1 of   46 Time   8:49:51
  Original Simulation       10  18  1975 Yr    1 of   46 Time   8:49:51
  Original Simulation       10  19  1975 Yr    1 of   46 Time   8:49:51
  Original Simulation       10  20  1975 Yr    1 of   46 Time   8:49:51
  Original Simulation       10  21  1975 Yr    1 of   46 Time   8:49:51
  Original Simulation       10  22  1975 Yr    1 of   46 Time   8:49:51
  Original Simulation       10  23  1975 Yr    1 of   46 Time   8:49:51
  Original Simulation       10  24  1975 Yr    1 of   46 Time   8:49:51
  Original Simulation       10  25  1975 Yr    1 of   46 Time   8:49:51
  Original Simulation       10  26  1975 Yr    1 of   46 Time   8:49:51
  Original Simulation       10  27  1975 Yr    1 of   46 Time   8:49:51
  Original Simulation       10  28  1975 Yr    1 of   46 Time   8:49:51
  Original Simulation       10  29  1975 Yr    1 of   46 Time   8:49:51
  Original Simulation       10  30  1975 Yr    1 of   46 Time   8:49:51
  Original Simulation       10  31  1975 Yr    1 of   46 Time   8:49:51
  Original Simulation       11   1  1975 Yr    1 of   46 Time   8:49:51
  Original Simulation       11   2  1975 Yr    1 of   46 Time   8:49:51
  Original Simulation       11   3  1975 Yr    1 of   46 Time   8:49:51
  Original Simulation       11   4  1975 Yr    1 of   46 Time   8:49:51
  Original Simulation       11   5  1975 Yr    1 of   46 Time   8:49:51
  Original Simulation       11   6  1975 Yr    1 of   46 Time   8:49:51
  Original Simulation       11   7  1975 Yr    1 of   46 Time   8:49:51
  Original Simulation       11   8  1975 Yr    1 of   46 Time   8:49:51
  Original Simulation       11   9  1975 Yr    1 of   46 Time   8:49:51
  Original Simulation       11  10  1975 Yr    1 of   46 Time   8:49:51
  Original Simulation       11  11  1975 Yr    1 of   46 Time   8:49:51
  Original Simulation       11  12  1975 Yr    1 of   46 Time   8:49:51
  Original Simulation       11  13  1975 Yr    1 of   46 Time   8:49:51
  Original Simulation       11  14  1975 Yr    1 of   46 Time   8:49:51
  Original Simulation       11  15  1975 Yr    1 of   46 Time   8:49:51
  Original Simulation       11  16  1975 Yr    1 of   46 Time   8:49:51
  Original Simulation       11  17  1975 Yr    1 of   46 Time   8:49:51
  Original Simulation       11  18  1975 Yr    1 of   46 Time   8:49:51
  Original Simulation       11  19  1975 Yr    1 of   46 Time   8:49:51
  Original Simulation       11  20  1975 Yr    1 of   46 Time   8:49:51
  Original Simulation       11  21  1975 Yr    1 of   46 Time   8:49:51
  Original Simulation       11  22  1975 Yr    1 of   46 Time   8:49:51
  Original Simulation       11  23  1975 Yr    1 of   46 Time   8:49:51
  Original Simulation       11  24  1975 Yr    1 of   46 Time   8:49:51
  Original Simulation       11  25  1975 Yr    1 of   46 Time   8:49:51
  Original Simulation       11  26  1975 Yr    1 of   46 Time   8:49:51
  Original Simulation       11  27  1975 Yr    1 of   46 Time   8:49:51
  Original Simulation       11  28  1975 Yr    1 of   46 Time   8:49:51
  Original Simulation       11  29  1975 Yr    1 of   46 Time   8:49:51
  Original Simulation       11  30  1975 Yr    1 of   46 Time   8:49:51
  Original Simulation       12   1  1975 Yr    1 of   46 Time   8:49:51
  Original Simulation       12   2  1975 Yr    1 of   46 Time   8:49:51
  Original Simulation       12   3  1975 Yr    1 of   46 Time   8:49:51
  Original Simulation       12   4  1975 Yr    1 of   46 Time   8:49:51
  Original Simulation       12   5  1975 Yr    1 of   46 Time   8:49:51
  Original Simulation       12   6  1975 Yr    1 of   46 Time   8:49:51
  Original Simulation       12   7  1975 Yr    1 of   46 Time   8:49:51
  Original Simulation       12   8  1975 Yr    1 of   46 Time   8:49:51
  Original Simulation       12   9  1975 Yr    1 of   46 Time   8:49:51
  Original Simulation       12  10  1975 Yr    1 of   46 Time   8:49:51
  Original Simulation       12  11  1975 Yr    1 of   46 Time   8:49:51
  Original Simulation       12  12  1975 Yr    1 of   46 Time   8:49:51
  Original Simulation       12  13  1975 Yr    1 of   46 Time   8:49:51
  Original Simulation       12  14  1975 Yr    1 of   46 Time   8:49:51
  Original Simulation       12  15  1975 Yr    1 of   46 Time   8:49:51
  Original Simulation       12  16  1975 Yr    1 of   46 Time   8:49:51
  Original Simulation       12  17  1975 Yr    1 of   46 Time   8:49:51
  Original Simulation       12  18  1975 Yr    1 of   46 Time   8:49:51
  Original Simulation       12  19  1975 Yr    1 of   46 Time   8:49:51
  Original Simulation       12  20  1975 Yr    1 of   46 Time   8:49:51
  Original Simulation       12  21  1975 Yr    1 of   46 Time   8:49:51
  Original Simulation       12  22  1975 Yr    1 of   46 Time   8:49:51
  Original Simulation       12  23  1975 Yr    1 of   46 Time   8:49:51
  Original Simulation       12  24  1975 Yr    1 of   46 Time   8:49:51
  Original Simulation       12  25  1975 Yr    1 of   46 Time   8:49:51
  Original Simulation       12  26  1975 Yr    1 of   46 Time   8:49:51
  Original Simulation       12  27  1975 Yr    1 of   46 Time   8:49:51
  Original Simulation       12  28  1975 Yr    1 of   46 Time   8:49:51
  Original Simulation       12  29  1975 Yr    1 of   46 Time   8:49:51
  Original Simulation       12  30  1975 Yr    1 of   46 Time   8:49:51
  Original Simulation       12  31  1975 Yr    1 of   46 Time   8:49:51
  Original Simulation        1   1  1976 Yr    2 of   46 Time   8:49:51
  Original Simulation        1   2  1976 Yr    2 of   46 Time   8:49:51
  Original Simulation        1   3  1976 Yr    2 of   46 Time   8:49:51
  Original Simulation        1   4  1976 Yr    2 of   46 Time   8:49:51
  Original Simulation        1   5  1976 Yr    2 of   46 Time   8:49:51
  Original Simulation        1   6  1976 Yr    2 of   46 Time   8:49:51
  Original Simulation        1   7  1976 Yr    2 of   46 Time   8:49:51
  Original Simulation        1   8  1976 Yr    2 of   46 Time   8:49:51
  Original Simulation        1   9  1976 Yr    2 of   46 Time   8:49:51
  Original Simulation        1  10  1976 Yr    2 of   46 Time   8:49:51
  Original Simulation        1  11  1976 Yr    2 of   46 Time   8:49:51
  Original Simulation        1  12  1976 Yr    2 of   46 Time   8:49:51
  Original Simulation        1  13  1976 Yr    2 of   46 Time   8:49:51
  Original Simulation        1  14  1976 Yr    2 of   46 Time   8:49:51
  Original Simulation        1  15  1976 Yr    2 of   46 Time   8:49:51
  Original Simulation        1  16  1976 Yr    2 of   46 Time   8:49:51
  Original Simulation        1  17  1976 Yr    2 of   46 Time   8:49:51
  Original Simulation        1  18  1976 Yr    2 of   46 Time   8:49:51
  Original Simulation        1  19  1976 Yr    2 of   46 Time   8:49:51
  Original Simulation        1  20  1976 Yr    2 of   46 Time   8:49:51
  Original Simulation        1  21  1976 Yr    2 of   46 Time   8:49:51
  Original Simulation        1  22  1976 Yr    2 of   46 Time   8:49:51
  Original Simulation        1  23  1976 Yr    2 of   46 Time   8:49:51
  Original Simulation        1  24  1976 Yr    2 of   46 Time   8:49:51
  Original Simulation        1  25  1976 Yr    2 of   46 Time   8:49:51
  Original Simulation        1  26  1976 Yr    2 of   46 Time   8:49:51
  Original Simulation        1  27  1976 Yr    2 of   46 Time   8:49:51
  Original Simulation        1  28  1976 Yr    2 of   46 Time   8:49:51
  Original Simulation        1  29  1976 Yr    2 of   46 Time   8:49:51
  Original Simulation        1  30  1976 Yr    2 of   46 Time   8:49:51
  Original Simulation        1  31  1976 Yr    2 of   46 Time   8:49:51
  Original Simulation        2   1  1976 Yr    2 of   46 Time   8:49:51
  Original Simulation        2   2  1976 Yr    2 of   46 Time   8:49:51
  Original Simulation        2   3  1976 Yr    2 of   46 Time   8:49:51
  Original Simulation        2   4  1976 Yr    2 of   46 Time   8:49:51
  Original Simulation        2   5  1976 Yr    2 of   46 Time   8:49:51
  Original Simulation        2   6  1976 Yr    2 of   46 Time   8:49:51
  Original Simulation        2   7  1976 Yr    2 of   46 Time   8:49:51
  Original Simulation        2   8  1976 Yr    2 of   46 Time   8:49:51
  Original Simulation        2   9  1976 Yr    2 of   46 Time   8:49:51
  Original Simulation        2  10  1976 Yr    2 of   46 Time   8:49:51
  Original Simulation        2  11  1976 Yr    2 of   46 Time   8:49:51
  Original Simulation        2  12  1976 Yr    2 of   46 Time   8:49:51
  Original Simulation        2  13  1976 Yr    2 of   46 Time   8:49:51
  Original Simulation        2  14  1976 Yr    2 of   46 Time   8:49:51
  Original Simulation        2  15  1976 Yr    2 of   46 Time   8:49:51
  Original Simulation        2  16  1976 Yr    2 of   46 Time   8:49:51
  Original Simulation        2  17  1976 Yr    2 of   46 Time   8:49:51
  Original Simulation        2  18  1976 Yr    2 of   46 Time   8:49:51
  Original Simulation        2  19  1976 Yr    2 of   46 Time   8:49:51
  Original Simulation        2  20  1976 Yr    2 of   46 Time   8:49:51
  Original Simulation        2  21  1976 Yr    2 of   46 Time   8:49:51
  Original Simulation        2  22  1976 Yr    2 of   46 Time   8:49:51
  Original Simulation        2  23  1976 Yr    2 of   46 Time   8:49:51
  Original Simulation        2  24  1976 Yr    2 of   46 Time   8:49:51
  Original Simulation        2  25  1976 Yr    2 of   46 Time   8:49:51
  Original Simulation        2  26  1976 Yr    2 of   46 Time   8:49:51
  Original Simulation        2  27  1976 Yr    2 of   46 Time   8:49:51
  Original Simulation        2  28  1976 Yr    2 of   46 Time   8:49:51
  Original Simulation        2  29  1976 Yr    2 of   46 Time   8:49:51
  Original Simulation        3   1  1976 Yr    2 of   46 Time   8:49:51
  Original Simulation        3   2  1976 Yr    2 of   46 Time   8:49:51
  Original Simulation        3   3  1976 Yr    2 of   46 Time   8:49:51
  Original Simulation        3   4  1976 Yr    2 of   46 Time   8:49:51
  Original Simulation        3   5  1976 Yr    2 of   46 Time   8:49:51
  Original Simulation        3   6  1976 Yr    2 of   46 Time   8:49:51
  Original Simulation        3   7  1976 Yr    2 of   46 Time   8:49:51
  Original Simulation        3   8  1976 Yr    2 of   46 Time   8:49:51
  Original Simulation        3   9  1976 Yr    2 of   46 Time   8:49:51
  Original Simulation        3  10  1976 Yr    2 of   46 Time   8:49:51
  Original Simulation        3  11  1976 Yr    2 of   46 Time   8:49:51
  Original Simulation        3  12  1976 Yr    2 of   46 Time   8:49:51
  Original Simulation        3  13  1976 Yr    2 of   46 Time   8:49:51
  Original Simulation        3  14  1976 Yr    2 of   46 Time   8:49:51
  Original Simulation        3  15  1976 Yr    2 of   46 Time   8:49:51
  Original Simulation        3  16  1976 Yr    2 of   46 Time   8:49:51
  Original Simulation        3  17  1976 Yr    2 of   46 Time   8:49:51
  Original Simulation        3  18  1976 Yr    2 of   46 Time   8:49:51
  Original Simulation        3  19  1976 Yr    2 of   46 Time   8:49:51
  Original Simulation        3  20  1976 Yr    2 of   46 Time   8:49:51
  Original Simulation        3  21  1976 Yr    2 of   46 Time   8:49:51
  Original Simulation        3  22  1976 Yr    2 of   46 Time   8:49:51
  Original Simulation        3  23  1976 Yr    2 of   46 Time   8:49:51
  Original Simulation        3  24  1976 Yr    2 of   46 Time   8:49:51
  Original Simulation        3  25  1976 Yr    2 of   46 Time   8:49:51
  Original Simulation        3  26  1976 Yr    2 of   46 Time   8:49:51
  Original Simulation        3  27  1976 Yr    2 of   46 Time   8:49:51
  Original Simulation        3  28  1976 Yr    2 of   46 Time   8:49:51
  Original Simulation        3  29  1976 Yr    2 of   46 Time   8:49:51
  Original Simulation        3  30  1976 Yr    2 of   46 Time   8:49:51
  Original Simulation        3  31  1976 Yr    2 of   46 Time   8:49:51
  Original Simulation        4   1  1976 Yr    2 of   46 Time   8:49:51
  Original Simulation        4   2  1976 Yr    2 of   46 Time   8:49:51
  Original Simulation        4   3  1976 Yr    2 of   46 Time   8:49:51
  Original Simulation        4   4  1976 Yr    2 of   46 Time   8:49:51
  Original Simulation        4   5  1976 Yr    2 of   46 Time   8:49:51
  Original Simulation        4   6  1976 Yr    2 of   46 Time   8:49:51
  Original Simulation        4   7  1976 Yr    2 of   46 Time   8:49:51
  Original Simulation        4   8  1976 Yr    2 of   46 Time   8:49:51
  Original Simulation        4   9  1976 Yr    2 of   46 Time   8:49:51
  Original Simulation        4  10  1976 Yr    2 of   46 Time   8:49:51
  Original Simulation        4  11  1976 Yr    2 of   46 Time   8:49:51
  Original Simulation        4  12  1976 Yr    2 of   46 Time   8:49:51
  Original Simulation        4  13  1976 Yr    2 of   46 Time   8:49:51
  Original Simulation        4  14  1976 Yr    2 of   46 Time   8:49:51
  Original Simulation        4  15  1976 Yr    2 of   46 Time   8:49:51
  Original Simulation        4  16  1976 Yr    2 of   46 Time   8:49:51
  Original Simulation        4  17  1976 Yr    2 of   46 Time   8:49:51
  Original Simulation        4  18  1976 Yr    2 of   46 Time   8:49:51
  Original Simulation        4  19  1976 Yr    2 of   46 Time   8:49:51
  Original Simulation        4  20  1976 Yr    2 of   46 Time   8:49:51
  Original Simulation        4  21  1976 Yr    2 of   46 Time   8:49:51
  Original Simulation        4  22  1976 Yr    2 of   46 Time   8:49:51
  Original Simulation        4  23  1976 Yr    2 of   46 Time   8:49:51
  Original Simulation        4  24  1976 Yr    2 of   46 Time   8:49:51
  Original Simulation        4  25  1976 Yr    2 of   46 Time   8:49:51
  Original Simulation        4  26  1976 Yr    2 of   46 Time   8:49:51
  Original Simulation        4  27  1976 Yr    2 of   46 Time   8:49:51
  Original Simulation        4  28  1976 Yr    2 of   46 Time   8:49:51
  Original Simulation        4  29  1976 Yr    2 of   46 Time   8:49:51
  Original Simulation        4  30  1976 Yr    2 of   46 Time   8:49:51
  Original Simulation        5   1  1976 Yr    2 of   46 Time   8:49:51
  Original Simulation        5   2  1976 Yr    2 of   46 Time   8:49:51
  Original Simulation        5   3  1976 Yr    2 of   46 Time   8:49:51
  Original Simulation        5   4  1976 Yr    2 of   46 Time   8:49:51
  Original Simulation        5   5  1976 Yr    2 of   46 Time   8:49:51
  Original Simulation        5   6  1976 Yr    2 of   46 Time   8:49:51
  Original Simulation        5   7  1976 Yr    2 of   46 Time   8:49:51
  Original Simulation        5   8  1976 Yr    2 of   46 Time   8:49:51
  Original Simulation        5   9  1976 Yr    2 of   46 Time   8:49:51
  Original Simulation        5  10  1976 Yr    2 of   46 Time   8:49:51
  Original Simulation        5  11  1976 Yr    2 of   46 Time   8:49:51
  Original Simulation        5  12  1976 Yr    2 of   46 Time   8:49:51
  Original Simulation        5  13  1976 Yr    2 of   46 Time   8:49:51
  Original Simulation        5  14  1976 Yr    2 of   46 Time   8:49:51
  Original Simulation        5  15  1976 Yr    2 of   46 Time   8:49:51
  Original Simulation        5  16  1976 Yr    2 of   46 Time   8:49:51
  Original Simulation        5  17  1976 Yr    2 of   46 Time   8:49:51
  Original Simulation        5  18  1976 Yr    2 of   46 Time   8:49:51
  Original Simulation        5  19  1976 Yr    2 of   46 Time   8:49:51
  Original Simulation        5  20  1976 Yr    2 of   46 Time   8:49:51
  Original Simulation        5  21  1976 Yr    2 of   46 Time   8:49:51
  Original Simulation        5  22  1976 Yr    2 of   46 Time   8:49:51
  Original Simulation        5  23  1976 Yr    2 of   46 Time   8:49:51
  Original Simulation        5  24  1976 Yr    2 of   46 Time   8:49:51
  Original Simulation        5  25  1976 Yr    2 of   46 Time   8:49:51
  Original Simulation        5  26  1976 Yr    2 of   46 Time   8:49:51
  Original Simulation        5  27  1976 Yr    2 of   46 Time   8:49:51
  Original Simulation        5  28  1976 Yr    2 of   46 Time   8:49:51
  Original Simulation        5  29  1976 Yr    2 of   46 Time   8:49:51
  Original Simulation        5  30  1976 Yr    2 of   46 Time   8:49:51
  Original Simulation        5  31  1976 Yr    2 of   46 Time   8:49:51
  Original Simulation        6   1  1976 Yr    2 of   46 Time   8:49:51
  Original Simulation        6   2  1976 Yr    2 of   46 Time   8:49:51
  Original Simulation        6   3  1976 Yr    2 of   46 Time   8:49:51
  Original Simulation        6   4  1976 Yr    2 of   46 Time   8:49:51
  Original Simulation        6   5  1976 Yr    2 of   46 Time   8:49:51
  Original Simulation        6   6  1976 Yr    2 of   46 Time   8:49:51
  Original Simulation        6   7  1976 Yr    2 of   46 Time   8:49:51
  Original Simulation        6   8  1976 Yr    2 of   46 Time   8:49:51
  Original Simulation        6   9  1976 Yr    2 of   46 Time   8:49:51
  Original Simulation        6  10  1976 Yr    2 of   46 Time   8:49:51
  Original Simulation        6  11  1976 Yr    2 of   46 Time   8:49:51
  Original Simulation        6  12  1976 Yr    2 of   46 Time   8:49:51
  Original Simulation        6  13  1976 Yr    2 of   46 Time   8:49:51
  Original Simulation        6  14  1976 Yr    2 of   46 Time   8:49:51
  Original Simulation        6  15  1976 Yr    2 of   46 Time   8:49:51
  Original Simulation        6  16  1976 Yr    2 of   46 Time   8:49:51
  Original Simulation        6  17  1976 Yr    2 of   46 Time   8:49:51
  Original Simulation        6  18  1976 Yr    2 of   46 Time   8:49:51
  Original Simulation        6  19  1976 Yr    2 of   46 Time   8:49:51
  Original Simulation        6  20  1976 Yr    2 of   46 Time   8:49:51
  Original Simulation        6  21  1976 Yr    2 of   46 Time   8:49:51
  Original Simulation        6  22  1976 Yr    2 of   46 Time   8:49:51
  Original Simulation        6  23  1976 Yr    2 of   46 Time   8:49:51
  Original Simulation        6  24  1976 Yr    2 of   46 Time   8:49:51
  Original Simulation        6  25  1976 Yr    2 of   46 Time   8:49:51
  Original Simulation        6  26  1976 Yr    2 of   46 Time   8:49:51
  Original Simulation        6  27  1976 Yr    2 of   46 Time   8:49:51
  Original Simulation        6  28  1976 Yr    2 of   46 Time   8:49:51
  Original Simulation        6  29  1976 Yr    2 of   46 Time   8:49:51
  Original Simulation        6  30  1976 Yr    2 of   46 Time   8:49:51
  Original Simulation        7   1  1976 Yr    2 of   46 Time   8:49:51
  Original Simulation        7   2  1976 Yr    2 of   46 Time   8:49:51
  Original Simulation        7   3  1976 Yr    2 of   46 Time   8:49:51
  Original Simulation        7   4  1976 Yr    2 of   46 Time   8:49:51
  Original Simulation        7   5  1976 Yr    2 of   46 Time   8:49:51
  Original Simulation        7   6  1976 Yr    2 of   46 Time   8:49:51
  Original Simulation        7   7  1976 Yr    2 of   46 Time   8:49:51
  Original Simulation        7   8  1976 Yr    2 of   46 Time   8:49:51
  Original Simulation        7   9  1976 Yr    2 of   46 Time   8:49:51
  Original Simulation        7  10  1976 Yr    2 of   46 Time   8:49:51
  Original Simulation        7  11  1976 Yr    2 of   46 Time   8:49:51
  Original Simulation        7  12  1976 Yr    2 of   46 Time   8:49:51
  Original Simulation        7  13  1976 Yr    2 of   46 Time   8:49:51
  Original Simulation        7  14  1976 Yr    2 of   46 Time   8:49:51
  Original Simulation        7  15  1976 Yr    2 of   46 Time   8:49:51
  Original Simulation        7  16  1976 Yr    2 of   46 Time   8:49:51
  Original Simulation        7  17  1976 Yr    2 of   46 Time   8:49:51
  Original Simulation        7  18  1976 Yr    2 of   46 Time   8:49:51
  Original Simulation        7  19  1976 Yr    2 of   46 Time   8:49:51
  Original Simulation        7  20  1976 Yr    2 of   46 Time   8:49:51
  Original Simulation        7  21  1976 Yr    2 of   46 Time   8:49:51
  Original Simulation        7  22  1976 Yr    2 of   46 Time   8:49:51
  Original Simulation        7  23  1976 Yr    2 of   46 Time   8:49:51
  Original Simulation        7  24  1976 Yr    2 of   46 Time   8:49:51
  Original Simulation        7  25  1976 Yr    2 of   46 Time   8:49:51
  Original Simulation        7  26  1976 Yr    2 of   46 Time   8:49:51
  Original Simulation        7  27  1976 Yr    2 of   46 Time   8:49:51
  Original Simulation        7  28  1976 Yr    2 of   46 Time   8:49:51
  Original Simulation        7  29  1976 Yr    2 of   46 Time   8:49:51
  Original Simulation        7  30  1976 Yr    2 of   46 Time   8:49:51
  Original Simulation        7  31  1976 Yr    2 of   46 Time   8:49:51
  Original Simulation        8   1  1976 Yr    2 of   46 Time   8:49:51
  Original Simulation        8   2  1976 Yr    2 of   46 Time   8:49:51
  Original Simulation        8   3  1976 Yr    2 of   46 Time   8:49:51
  Original Simulation        8   4  1976 Yr    2 of   46 Time   8:49:51
  Original Simulation        8   5  1976 Yr    2 of   46 Time   8:49:51
  Original Simulation        8   6  1976 Yr    2 of   46 Time   8:49:51
  Original Simulation        8   7  1976 Yr    2 of   46 Time   8:49:51
  Original Simulation        8   8  1976 Yr    2 of   46 Time   8:49:51
  Original Simulation        8   9  1976 Yr    2 of   46 Time   8:49:51
  Original Simulation        8  10  1976 Yr    2 of   46 Time   8:49:51
  Original Simulation        8  11  1976 Yr    2 of   46 Time   8:49:51
  Original Simulation        8  12  1976 Yr    2 of   46 Time   8:49:51
  Original Simulation        8  13  1976 Yr    2 of   46 Time   8:49:51
  Original Simulation        8  14  1976 Yr    2 of   46 Time   8:49:51
  Original Simulation        8  15  1976 Yr    2 of   46 Time   8:49:51
  Original Simulation        8  16  1976 Yr    2 of   46 Time   8:49:51
  Original Simulation        8  17  1976 Yr    2 of   46 Time   8:49:51
  Original Simulation        8  18  1976 Yr    2 of   46 Time   8:49:51
  Original Simulation        8  19  1976 Yr    2 of   46 Time   8:49:51
  Original Simulation        8  20  1976 Yr    2 of   46 Time   8:49:51
  Original Simulation        8  21  1976 Yr    2 of   46 Time   8:49:51
  Original Simulation        8  22  1976 Yr    2 of   46 Time   8:49:51
  Original Simulation        8  23  1976 Yr    2 of   46 Time   8:49:51
  Original Simulation        8  24  1976 Yr    2 of   46 Time   8:49:51
  Original Simulation        8  25  1976 Yr    2 of   46 Time   8:49:51
  Original Simulation        8  26  1976 Yr    2 of   46 Time   8:49:51
  Original Simulation        8  27  1976 Yr    2 of   46 Time   8:49:51
  Original Simulation        8  28  1976 Yr    2 of   46 Time   8:49:51
  Original Simulation        8  29  1976 Yr    2 of   46 Time   8:49:51
  Original Simulation        8  30  1976 Yr    2 of   46 Time   8:49:51
  Original Simulation        8  31  1976 Yr    2 of   46 Time   8:49:51
  Original Simulation        9   1  1976 Yr    2 of   46 Time   8:49:51
  Original Simulation        9   2  1976 Yr    2 of   46 Time   8:49:51
  Original Simulation        9   3  1976 Yr    2 of   46 Time   8:49:51
  Original Simulation        9   4  1976 Yr    2 of   46 Time   8:49:51
  Original Simulation        9   5  1976 Yr    2 of   46 Time   8:49:51
  Original Simulation        9   6  1976 Yr    2 of   46 Time   8:49:51
  Original Simulation        9   7  1976 Yr    2 of   46 Time   8:49:51
  Original Simulation        9   8  1976 Yr    2 of   46 Time   8:49:51
  Original Simulation        9   9  1976 Yr    2 of   46 Time   8:49:51
  Original Simulation        9  10  1976 Yr    2 of   46 Time   8:49:51
  Original Simulation        9  11  1976 Yr    2 of   46 Time   8:49:51
  Original Simulation        9  12  1976 Yr    2 of   46 Time   8:49:51
  Original Simulation        9  13  1976 Yr    2 of   46 Time   8:49:51
  Original Simulation        9  14  1976 Yr    2 of   46 Time   8:49:51
  Original Simulation        9  15  1976 Yr    2 of   46 Time   8:49:51
  Original Simulation        9  16  1976 Yr    2 of   46 Time   8:49:51
  Original Simulation        9  17  1976 Yr    2 of   46 Time   8:49:51
  Original Simulation        9  18  1976 Yr    2 of   46 Time   8:49:51
  Original Simulation        9  19  1976 Yr    2 of   46 Time   8:49:51
  Original Simulation        9  20  1976 Yr    2 of   46 Time   8:49:51
  Original Simulation        9  21  1976 Yr    2 of   46 Time   8:49:51
  Original Simulation        9  22  1976 Yr    2 of   46 Time   8:49:51
  Original Simulation        9  23  1976 Yr    2 of   46 Time   8:49:51
  Original Simulation        9  24  1976 Yr    2 of   46 Time   8:49:51
  Original Simulation        9  25  1976 Yr    2 of   46 Time   8:49:51
  Original Simulation        9  26  1976 Yr    2 of   46 Time   8:49:51
  Original Simulation        9  27  1976 Yr    2 of   46 Time   8:49:51
  Original Simulation        9  28  1976 Yr    2 of   46 Time   8:49:51
  Original Simulation        9  29  1976 Yr    2 of   46 Time   8:49:51
  Original Simulation        9  30  1976 Yr    2 of   46 Time   8:49:51
  Original Simulation       10   1  1976 Yr    2 of   46 Time   8:49:51
  Original Simulation       10   2  1976 Yr    2 of   46 Time   8:49:51
  Original Simulation       10   3  1976 Yr    2 of   46 Time   8:49:51
  Original Simulation       10   4  1976 Yr    2 of   46 Time   8:49:51
  Original Simulation       10   5  1976 Yr    2 of   46 Time   8:49:51
  Original Simulation       10   6  1976 Yr    2 of   46 Time   8:49:51
  Original Simulation       10   7  1976 Yr    2 of   46 Time   8:49:51
  Original Simulation       10   8  1976 Yr    2 of   46 Time   8:49:51
  Original Simulation       10   9  1976 Yr    2 of   46 Time   8:49:51
  Original Simulation       10  10  1976 Yr    2 of   46 Time   8:49:51
  Original Simulation       10  11  1976 Yr    2 of   46 Time   8:49:51
  Original Simulation       10  12  1976 Yr    2 of   46 Time   8:49:51
  Original Simulation       10  13  1976 Yr    2 of   46 Time   8:49:51
  Original Simulation       10  14  1976 Yr    2 of   46 Time   8:49:51
  Original Simulation       10  15  1976 Yr    2 of   46 Time   8:49:51
  Original Simulation       10  16  1976 Yr    2 of   46 Time   8:49:51
  Original Simulation       10  17  1976 Yr    2 of   46 Time   8:49:51
  Original Simulation       10  18  1976 Yr    2 of   46 Time   8:49:51
  Original Simulation       10  19  1976 Yr    2 of   46 Time   8:49:51
  Original Simulation       10  20  1976 Yr    2 of   46 Time   8:49:51
  Original Simulation       10  21  1976 Yr    2 of   46 Time   8:49:51
  Original Simulation       10  22  1976 Yr    2 of   46 Time   8:49:51
  Original Simulation       10  23  1976 Yr    2 of   46 Time   8:49:51
  Original Simulation       10  24  1976 Yr    2 of   46 Time   8:49:51
  Original Simulation       10  25  1976 Yr    2 of   46 Time   8:49:51
  Original Simulation       10  26  1976 Yr    2 of   46 Time   8:49:51
  Original Simulation       10  27  1976 Yr    2 of   46 Time   8:49:51
  Original Simulation       10  28  1976 Yr    2 of   46 Time   8:49:51
  Original Simulation       10  29  1976 Yr    2 of   46 Time   8:49:51
  Original Simulation       10  30  1976 Yr    2 of   46 Time   8:49:51
  Original Simulation       10  31  1976 Yr    2 of   46 Time   8:49:51
  Original Simulation       11   1  1976 Yr    2 of   46 Time   8:49:51
  Original Simulation       11   2  1976 Yr    2 of   46 Time   8:49:51
  Original Simulation       11   3  1976 Yr    2 of   46 Time   8:49:51
  Original Simulation       11   4  1976 Yr    2 of   46 Time   8:49:51
  Original Simulation       11   5  1976 Yr    2 of   46 Time   8:49:51
  Original Simulation       11   6  1976 Yr    2 of   46 Time   8:49:51
  Original Simulation       11   7  1976 Yr    2 of   46 Time   8:49:51
  Original Simulation       11   8  1976 Yr    2 of   46 Time   8:49:51
  Original Simulation       11   9  1976 Yr    2 of   46 Time   8:49:51
  Original Simulation       11  10  1976 Yr    2 of   46 Time   8:49:51
  Original Simulation       11  11  1976 Yr    2 of   46 Time   8:49:51
  Original Simulation       11  12  1976 Yr    2 of   46 Time   8:49:51
  Original Simulation       11  13  1976 Yr    2 of   46 Time   8:49:51
  Original Simulation       11  14  1976 Yr    2 of   46 Time   8:49:51
  Original Simulation       11  15  1976 Yr    2 of   46 Time   8:49:51
  Original Simulation       11  16  1976 Yr    2 of   46 Time   8:49:51
  Original Simulation       11  17  1976 Yr    2 of   46 Time   8:49:51
  Original Simulation       11  18  1976 Yr    2 of   46 Time   8:49:51
  Original Simulation       11  19  1976 Yr    2 of   46 Time   8:49:51
  Original Simulation       11  20  1976 Yr    2 of   46 Time   8:49:51
  Original Simulation       11  21  1976 Yr    2 of   46 Time   8:49:51
  Original Simulation       11  22  1976 Yr    2 of   46 Time   8:49:51
  Original Simulation       11  23  1976 Yr    2 of   46 Time   8:49:51
  Original Simulation       11  24  1976 Yr    2 of   46 Time   8:49:51
  Original Simulation       11  25  1976 Yr    2 of   46 Time   8:49:51
  Original Simulation       11  26  1976 Yr    2 of   46 Time   8:49:51
  Original Simulation       11  27  1976 Yr    2 of   46 Time   8:49:51
  Original Simulation       11  28  1976 Yr    2 of   46 Time   8:49:51
  Original Simulation       11  29  1976 Yr    2 of   46 Time   8:49:51
  Original Simulation       11  30  1976 Yr    2 of   46 Time   8:49:51
  Original Simulation       12   1  1976 Yr    2 of   46 Time   8:49:51
  Original Simulation       12   2  1976 Yr    2 of   46 Time   8:49:51
  Original Simulation       12   3  1976 Yr    2 of   46 Time   8:49:51
  Original Simulation       12   4  1976 Yr    2 of   46 Time   8:49:51
  Original Simulation       12   5  1976 Yr    2 of   46 Time   8:49:51
  Original Simulation       12   6  1976 Yr    2 of   46 Time   8:49:51
  Original Simulation       12   7  1976 Yr    2 of   46 Time   8:49:51
  Original Simulation       12   8  1976 Yr    2 of   46 Time   8:49:51
  Original Simulation       12   9  1976 Yr    2 of   46 Time   8:49:51
  Original Simulation       12  10  1976 Yr    2 of   46 Time   8:49:51
  Original Simulation       12  11  1976 Yr    2 of   46 Time   8:49:51
  Original Simulation       12  12  1976 Yr    2 of   46 Time   8:49:51
  Original Simulation       12  13  1976 Yr    2 of   46 Time   8:49:51
  Original Simulation       12  14  1976 Yr    2 of   46 Time   8:49:51
  Original Simulation       12  15  1976 Yr    2 of   46 Time   8:49:51
  Original Simulation       12  16  1976 Yr    2 of   46 Time   8:49:51
  Original Simulation       12  17  1976 Yr    2 of   46 Time   8:49:51
  Original Simulation       12  18  1976 Yr    2 of   46 Time   8:49:51
  Original Simulation       12  19  1976 Yr    2 of   46 Time   8:49:51
  Original Simulation       12  20  1976 Yr    2 of   46 Time   8:49:51
  Original Simulation       12  21  1976 Yr    2 of   46 Time   8:49:51
  Original Simulation       12  22  1976 Yr    2 of   46 Time   8:49:51
  Original Simulation       12  23  1976 Yr    2 of   46 Time   8:49:51
  Original Simulation       12  24  1976 Yr    2 of   46 Time   8:49:51
  Original Simulation       12  25  1976 Yr    2 of   46 Time   8:49:51
  Original Simulation       12  26  1976 Yr    2 of   46 Time   8:49:51
  Original Simulation       12  27  1976 Yr    2 of   46 Time   8:49:51
  Original Simulation       12  28  1976 Yr    2 of   46 Time   8:49:51
  Original Simulation       12  29  1976 Yr    2 of   46 Time   8:49:51
  Original Simulation       12  30  1976 Yr    2 of   46 Time   8:49:51
  Original Simulation       12  31  1976 Yr    2 of   46 Time   8:49:51
  Original Simulation        1   1  1977 Yr    3 of   46 Time   8:49:51
  Original Simulation        1   2  1977 Yr    3 of   46 Time   8:49:51
  Original Simulation        1   3  1977 Yr    3 of   46 Time   8:49:51
  Original Simulation        1   4  1977 Yr    3 of   46 Time   8:49:51
  Original Simulation        1   5  1977 Yr    3 of   46 Time   8:49:51
  Original Simulation        1   6  1977 Yr    3 of   46 Time   8:49:51
  Original Simulation        1   7  1977 Yr    3 of   46 Time   8:49:51
  Original Simulation        1   8  1977 Yr    3 of   46 Time   8:49:51
  Original Simulation        1   9  1977 Yr    3 of   46 Time   8:49:51
  Original Simulation        1  10  1977 Yr    3 of   46 Time   8:49:51
  Original Simulation        1  11  1977 Yr    3 of   46 Time   8:49:51
  Original Simulation        1  12  1977 Yr    3 of   46 Time   8:49:51
  Original Simulation        1  13  1977 Yr    3 of   46 Time   8:49:51
  Original Simulation        1  14  1977 Yr    3 of   46 Time   8:49:51
  Original Simulation        1  15  1977 Yr    3 of   46 Time   8:49:51
  Original Simulation        1  16  1977 Yr    3 of   46 Time   8:49:51
  Original Simulation        1  17  1977 Yr    3 of   46 Time   8:49:51
  Original Simulation        1  18  1977 Yr    3 of   46 Time   8:49:51
  Original Simulation        1  19  1977 Yr    3 of   46 Time   8:49:51
  Original Simulation        1  20  1977 Yr    3 of   46 Time   8:49:51
  Original Simulation        1  21  1977 Yr    3 of   46 Time   8:49:51
  Original Simulation        1  22  1977 Yr    3 of   46 Time   8:49:51
  Original Simulation        1  23  1977 Yr    3 of   46 Time   8:49:51
  Original Simulation        1  24  1977 Yr    3 of   46 Time   8:49:51
  Original Simulation        1  25  1977 Yr    3 of   46 Time   8:49:51
  Original Simulation        1  26  1977 Yr    3 of   46 Time   8:49:51
  Original Simulation        1  27  1977 Yr    3 of   46 Time   8:49:51
  Original Simulation        1  28  1977 Yr    3 of   46 Time   8:49:51
  Original Simulation        1  29  1977 Yr    3 of   46 Time   8:49:51
  Original Simulation        1  30  1977 Yr    3 of   46 Time   8:49:51
  Original Simulation        1  31  1977 Yr    3 of   46 Time   8:49:51
  Original Simulation        2   1  1977 Yr    3 of   46 Time   8:49:51
  Original Simulation        2   2  1977 Yr    3 of   46 Time   8:49:51
  Original Simulation        2   3  1977 Yr    3 of   46 Time   8:49:51
  Original Simulation        2   4  1977 Yr    3 of   46 Time   8:49:51
  Original Simulation        2   5  1977 Yr    3 of   46 Time   8:49:51
  Original Simulation        2   6  1977 Yr    3 of   46 Time   8:49:51
  Original Simulation        2   7  1977 Yr    3 of   46 Time   8:49:51
  Original Simulation        2   8  1977 Yr    3 of   46 Time   8:49:51
  Original Simulation        2   9  1977 Yr    3 of   46 Time   8:49:51
  Original Simulation        2  10  1977 Yr    3 of   46 Time   8:49:51
  Original Simulation        2  11  1977 Yr    3 of   46 Time   8:49:51
  Original Simulation        2  12  1977 Yr    3 of   46 Time   8:49:51
  Original Simulation        2  13  1977 Yr    3 of   46 Time   8:49:51
  Original Simulation        2  14  1977 Yr    3 of   46 Time   8:49:51
  Original Simulation        2  15  1977 Yr    3 of   46 Time   8:49:51
  Original Simulation        2  16  1977 Yr    3 of   46 Time   8:49:51
  Original Simulation        2  17  1977 Yr    3 of   46 Time   8:49:51
  Original Simulation        2  18  1977 Yr    3 of   46 Time   8:49:51
  Original Simulation        2  19  1977 Yr    3 of   46 Time   8:49:51
  Original Simulation        2  20  1977 Yr    3 of   46 Time   8:49:51
  Original Simulation        2  21  1977 Yr    3 of   46 Time   8:49:51
  Original Simulation        2  22  1977 Yr    3 of   46 Time   8:49:51
  Original Simulation        2  23  1977 Yr    3 of   46 Time   8:49:51
  Original Simulation        2  24  1977 Yr    3 of   46 Time   8:49:51
  Original Simulation        2  25  1977 Yr    3 of   46 Time   8:49:51
  Original Simulation        2  26  1977 Yr    3 of   46 Time   8:49:51
  Original Simulation        2  27  1977 Yr    3 of   46 Time   8:49:51
  Original Simulation        2  28  1977 Yr    3 of   46 Time   8:49:51
  Original Simulation        3   1  1977 Yr    3 of   46 Time   8:49:51
  Original Simulation        3   2  1977 Yr    3 of   46 Time   8:49:51
  Original Simulation        3   3  1977 Yr    3 of   46 Time   8:49:51
  Original Simulation        3   4  1977 Yr    3 of   46 Time   8:49:51
  Original Simulation        3   5  1977 Yr    3 of   46 Time   8:49:51
  Original Simulation        3   6  1977 Yr    3 of   46 Time   8:49:51
  Original Simulation        3   7  1977 Yr    3 of   46 Time   8:49:51
  Original Simulation        3   8  1977 Yr    3 of   46 Time   8:49:51
  Original Simulation        3   9  1977 Yr    3 of   46 Time   8:49:51
  Original Simulation        3  10  1977 Yr    3 of   46 Time   8:49:51
  Original Simulation        3  11  1977 Yr    3 of   46 Time   8:49:51
  Original Simulation        3  12  1977 Yr    3 of   46 Time   8:49:51
  Original Simulation        3  13  1977 Yr    3 of   46 Time   8:49:51
  Original Simulation        3  14  1977 Yr    3 of   46 Time   8:49:51
  Original Simulation        3  15  1977 Yr    3 of   46 Time   8:49:51
  Original Simulation        3  16  1977 Yr    3 of   46 Time   8:49:51
  Original Simulation        3  17  1977 Yr    3 of   46 Time   8:49:51
  Original Simulation        3  18  1977 Yr    3 of   46 Time   8:49:51
  Original Simulation        3  19  1977 Yr    3 of   46 Time   8:49:51
  Original Simulation        3  20  1977 Yr    3 of   46 Time   8:49:51
  Original Simulation        3  21  1977 Yr    3 of   46 Time   8:49:51
  Original Simulation        3  22  1977 Yr    3 of   46 Time   8:49:51
  Original Simulation        3  23  1977 Yr    3 of   46 Time   8:49:51
  Original Simulation        3  24  1977 Yr    3 of   46 Time   8:49:51
  Original Simulation        3  25  1977 Yr    3 of   46 Time   8:49:51
  Original Simulation        3  26  1977 Yr    3 of   46 Time   8:49:51
  Original Simulation        3  27  1977 Yr    3 of   46 Time   8:49:51
  Original Simulation        3  28  1977 Yr    3 of   46 Time   8:49:51
  Original Simulation        3  29  1977 Yr    3 of   46 Time   8:49:51
  Original Simulation        3  30  1977 Yr    3 of   46 Time   8:49:51
  Original Simulation        3  31  1977 Yr    3 of   46 Time   8:49:51
  Original Simulation        4   1  1977 Yr    3 of   46 Time   8:49:51
  Original Simulation        4   2  1977 Yr    3 of   46 Time   8:49:51
  Original Simulation        4   3  1977 Yr    3 of   46 Time   8:49:51
  Original Simulation        4   4  1977 Yr    3 of   46 Time   8:49:51
  Original Simulation        4   5  1977 Yr    3 of   46 Time   8:49:51
  Original Simulation        4   6  1977 Yr    3 of   46 Time   8:49:51
  Original Simulation        4   7  1977 Yr    3 of   46 Time   8:49:51
  Original Simulation        4   8  1977 Yr    3 of   46 Time   8:49:51
  Original Simulation        4   9  1977 Yr    3 of   46 Time   8:49:51
  Original Simulation        4  10  1977 Yr    3 of   46 Time   8:49:51
  Original Simulation        4  11  1977 Yr    3 of   46 Time   8:49:51
  Original Simulation        4  12  1977 Yr    3 of   46 Time   8:49:51
  Original Simulation        4  13  1977 Yr    3 of   46 Time   8:49:51
  Original Simulation        4  14  1977 Yr    3 of   46 Time   8:49:51
  Original Simulation        4  15  1977 Yr    3 of   46 Time   8:49:51
  Original Simulation        4  16  1977 Yr    3 of   46 Time   8:49:51
  Original Simulation        4  17  1977 Yr    3 of   46 Time   8:49:51
  Original Simulation        4  18  1977 Yr    3 of   46 Time   8:49:51
  Original Simulation        4  19  1977 Yr    3 of   46 Time   8:49:51
  Original Simulation        4  20  1977 Yr    3 of   46 Time   8:49:51
  Original Simulation        4  21  1977 Yr    3 of   46 Time   8:49:51
  Original Simulation        4  22  1977 Yr    3 of   46 Time   8:49:51
  Original Simulation        4  23  1977 Yr    3 of   46 Time   8:49:51
  Original Simulation        4  24  1977 Yr    3 of   46 Time   8:49:51
  Original Simulation        4  25  1977 Yr    3 of   46 Time   8:49:51
  Original Simulation        4  26  1977 Yr    3 of   46 Time   8:49:51
  Original Simulation        4  27  1977 Yr    3 of   46 Time   8:49:51
  Original Simulation        4  28  1977 Yr    3 of   46 Time   8:49:51
  Original Simulation        4  29  1977 Yr    3 of   46 Time   8:49:51
  Original Simulation        4  30  1977 Yr    3 of   46 Time   8:49:51
  Original Simulation        5   1  1977 Yr    3 of   46 Time   8:49:51
  Original Simulation        5   2  1977 Yr    3 of   46 Time   8:49:51
  Original Simulation        5   3  1977 Yr    3 of   46 Time   8:49:51
  Original Simulation        5   4  1977 Yr    3 of   46 Time   8:49:51
  Original Simulation        5   5  1977 Yr    3 of   46 Time   8:49:51
  Original Simulation        5   6  1977 Yr    3 of   46 Time   8:49:51
  Original Simulation        5   7  1977 Yr    3 of   46 Time   8:49:51
  Original Simulation        5   8  1977 Yr    3 of   46 Time   8:49:51
  Original Simulation        5   9  1977 Yr    3 of   46 Time   8:49:51
  Original Simulation        5  10  1977 Yr    3 of   46 Time   8:49:51
  Original Simulation        5  11  1977 Yr    3 of   46 Time   8:49:51
  Original Simulation        5  12  1977 Yr    3 of   46 Time   8:49:51
  Original Simulation        5  13  1977 Yr    3 of   46 Time   8:49:51
  Original Simulation        5  14  1977 Yr    3 of   46 Time   8:49:51
  Original Simulation        5  15  1977 Yr    3 of   46 Time   8:49:51
  Original Simulation        5  16  1977 Yr    3 of   46 Time   8:49:51
  Original Simulation        5  17  1977 Yr    3 of   46 Time   8:49:51
  Original Simulation        5  18  1977 Yr    3 of   46 Time   8:49:51
  Original Simulation        5  19  1977 Yr    3 of   46 Time   8:49:51
  Original Simulation        5  20  1977 Yr    3 of   46 Time   8:49:51
  Original Simulation        5  21  1977 Yr    3 of   46 Time   8:49:51
  Original Simulation        5  22  1977 Yr    3 of   46 Time   8:49:51
  Original Simulation        5  23  1977 Yr    3 of   46 Time   8:49:51
  Original Simulation        5  24  1977 Yr    3 of   46 Time   8:49:51
  Original Simulation        5  25  1977 Yr    3 of   46 Time   8:49:51
  Original Simulation        5  26  1977 Yr    3 of   46 Time   8:49:51
  Original Simulation        5  27  1977 Yr    3 of   46 Time   8:49:51
  Original Simulation        5  28  1977 Yr    3 of   46 Time   8:49:51
  Original Simulation        5  29  1977 Yr    3 of   46 Time   8:49:51
  Original Simulation        5  30  1977 Yr    3 of   46 Time   8:49:51
  Original Simulation        5  31  1977 Yr    3 of   46 Time   8:49:51
  Original Simulation        6   1  1977 Yr    3 of   46 Time   8:49:51
  Original Simulation        6   2  1977 Yr    3 of   46 Time   8:49:51
  Original Simulation        6   3  1977 Yr    3 of   46 Time   8:49:51
  Original Simulation        6   4  1977 Yr    3 of   46 Time   8:49:51
  Original Simulation        6   5  1977 Yr    3 of   46 Time   8:49:51
  Original Simulation        6   6  1977 Yr    3 of   46 Time   8:49:51
  Original Simulation        6   7  1977 Yr    3 of   46 Time   8:49:51
  Original Simulation        6   8  1977 Yr    3 of   46 Time   8:49:51
  Original Simulation        6   9  1977 Yr    3 of   46 Time   8:49:51
  Original Simulation        6  10  1977 Yr    3 of   46 Time   8:49:51
  Original Simulation        6  11  1977 Yr    3 of   46 Time   8:49:51
  Original Simulation        6  12  1977 Yr    3 of   46 Time   8:49:51
  Original Simulation        6  13  1977 Yr    3 of   46 Time   8:49:51
  Original Simulation        6  14  1977 Yr    3 of   46 Time   8:49:51
  Original Simulation        6  15  1977 Yr    3 of   46 Time   8:49:51
  Original Simulation        6  16  1977 Yr    3 of   46 Time   8:49:51
  Original Simulation        6  17  1977 Yr    3 of   46 Time   8:49:51
  Original Simulation        6  18  1977 Yr    3 of   46 Time   8:49:51
  Original Simulation        6  19  1977 Yr    3 of   46 Time   8:49:51
  Original Simulation        6  20  1977 Yr    3 of   46 Time   8:49:51
  Original Simulation        6  21  1977 Yr    3 of   46 Time   8:49:51
  Original Simulation        6  22  1977 Yr    3 of   46 Time   8:49:51
  Original Simulation        6  23  1977 Yr    3 of   46 Time   8:49:51
  Original Simulation        6  24  1977 Yr    3 of   46 Time   8:49:51
  Original Simulation        6  25  1977 Yr    3 of   46 Time   8:49:51
  Original Simulation        6  26  1977 Yr    3 of   46 Time   8:49:51
  Original Simulation        6  27  1977 Yr    3 of   46 Time   8:49:51
  Original Simulation        6  28  1977 Yr    3 of   46 Time   8:49:51
  Original Simulation        6  29  1977 Yr    3 of   46 Time   8:49:51
  Original Simulation        6  30  1977 Yr    3 of   46 Time   8:49:51
  Original Simulation        7   1  1977 Yr    3 of   46 Time   8:49:51
  Original Simulation        7   2  1977 Yr    3 of   46 Time   8:49:51
  Original Simulation        7   3  1977 Yr    3 of   46 Time   8:49:51
  Original Simulation        7   4  1977 Yr    3 of   46 Time   8:49:51
  Original Simulation        7   5  1977 Yr    3 of   46 Time   8:49:51
  Original Simulation        7   6  1977 Yr    3 of   46 Time   8:49:51
  Original Simulation        7   7  1977 Yr    3 of   46 Time   8:49:51
  Original Simulation        7   8  1977 Yr    3 of   46 Time   8:49:51
  Original Simulation        7   9  1977 Yr    3 of   46 Time   8:49:51
  Original Simulation        7  10  1977 Yr    3 of   46 Time   8:49:51
  Original Simulation        7  11  1977 Yr    3 of   46 Time   8:49:51
  Original Simulation        7  12  1977 Yr    3 of   46 Time   8:49:51
  Original Simulation        7  13  1977 Yr    3 of   46 Time   8:49:51
  Original Simulation        7  14  1977 Yr    3 of   46 Time   8:49:51
  Original Simulation        7  15  1977 Yr    3 of   46 Time   8:49:51
  Original Simulation        7  16  1977 Yr    3 of   46 Time   8:49:51
  Original Simulation        7  17  1977 Yr    3 of   46 Time   8:49:51
  Original Simulation        7  18  1977 Yr    3 of   46 Time   8:49:51
  Original Simulation        7  19  1977 Yr    3 of   46 Time   8:49:51
  Original Simulation        7  20  1977 Yr    3 of   46 Time   8:49:51
  Original Simulation        7  21  1977 Yr    3 of   46 Time   8:49:51
  Original Simulation        7  22  1977 Yr    3 of   46 Time   8:49:51
  Original Simulation        7  23  1977 Yr    3 of   46 Time   8:49:51
  Original Simulation        7  24  1977 Yr    3 of   46 Time   8:49:51
  Original Simulation        7  25  1977 Yr    3 of   46 Time   8:49:51
  Original Simulation        7  26  1977 Yr    3 of   46 Time   8:49:51
  Original Simulation        7  27  1977 Yr    3 of   46 Time   8:49:51
  Original Simulation        7  28  1977 Yr    3 of   46 Time   8:49:51
  Original Simulation        7  29  1977 Yr    3 of   46 Time   8:49:51
  Original Simulation        7  30  1977 Yr    3 of   46 Time   8:49:51
  Original Simulation        7  31  1977 Yr    3 of   46 Time   8:49:51
  Original Simulation        8   1  1977 Yr    3 of   46 Time   8:49:51
  Original Simulation        8   2  1977 Yr    3 of   46 Time   8:49:51
  Original Simulation        8   3  1977 Yr    3 of   46 Time   8:49:51
  Original Simulation        8   4  1977 Yr    3 of   46 Time   8:49:51
  Original Simulation        8   5  1977 Yr    3 of   46 Time   8:49:51
  Original Simulation        8   6  1977 Yr    3 of   46 Time   8:49:51
  Original Simulation        8   7  1977 Yr    3 of   46 Time   8:49:51
  Original Simulation        8   8  1977 Yr    3 of   46 Time   8:49:51
  Original Simulation        8   9  1977 Yr    3 of   46 Time   8:49:51
  Original Simulation        8  10  1977 Yr    3 of   46 Time   8:49:51
  Original Simulation        8  11  1977 Yr    3 of   46 Time   8:49:51
  Original Simulation        8  12  1977 Yr    3 of   46 Time   8:49:51
  Original Simulation        8  13  1977 Yr    3 of   46 Time   8:49:51
  Original Simulation        8  14  1977 Yr    3 of   46 Time   8:49:51
  Original Simulation        8  15  1977 Yr    3 of   46 Time   8:49:51
  Original Simulation        8  16  1977 Yr    3 of   46 Time   8:49:51
  Original Simulation        8  17  1977 Yr    3 of   46 Time   8:49:51
  Original Simulation        8  18  1977 Yr    3 of   46 Time   8:49:51
  Original Simulation        8  19  1977 Yr    3 of   46 Time   8:49:51
  Original Simulation        8  20  1977 Yr    3 of   46 Time   8:49:51
  Original Simulation        8  21  1977 Yr    3 of   46 Time   8:49:51
  Original Simulation        8  22  1977 Yr    3 of   46 Time   8:49:51
  Original Simulation        8  23  1977 Yr    3 of   46 Time   8:49:51
  Original Simulation        8  24  1977 Yr    3 of   46 Time   8:49:51
  Original Simulation        8  25  1977 Yr    3 of   46 Time   8:49:51
  Original Simulation        8  26  1977 Yr    3 of   46 Time   8:49:51
  Original Simulation        8  27  1977 Yr    3 of   46 Time   8:49:51
  Original Simulation        8  28  1977 Yr    3 of   46 Time   8:49:51
  Original Simulation        8  29  1977 Yr    3 of   46 Time   8:49:51
  Original Simulation        8  30  1977 Yr    3 of   46 Time   8:49:51
  Original Simulation        8  31  1977 Yr    3 of   46 Time   8:49:51
  Original Simulation        9   1  1977 Yr    3 of   46 Time   8:49:51
  Original Simulation        9   2  1977 Yr    3 of   46 Time   8:49:51
  Original Simulation        9   3  1977 Yr    3 of   46 Time   8:49:51
  Original Simulation        9   4  1977 Yr    3 of   46 Time   8:49:51
  Original Simulation        9   5  1977 Yr    3 of   46 Time   8:49:51
  Original Simulation        9   6  1977 Yr    3 of   46 Time   8:49:51
  Original Simulation        9   7  1977 Yr    3 of   46 Time   8:49:51
  Original Simulation        9   8  1977 Yr    3 of   46 Time   8:49:51
  Original Simulation        9   9  1977 Yr    3 of   46 Time   8:49:51
  Original Simulation        9  10  1977 Yr    3 of   46 Time   8:49:51
  Original Simulation        9  11  1977 Yr    3 of   46 Time   8:49:51
  Original Simulation        9  12  1977 Yr    3 of   46 Time   8:49:51
  Original Simulation        9  13  1977 Yr    3 of   46 Time   8:49:51
  Original Simulation        9  14  1977 Yr    3 of   46 Time   8:49:51
  Original Simulation        9  15  1977 Yr    3 of   46 Time   8:49:51
  Original Simulation        9  16  1977 Yr    3 of   46 Time   8:49:51
  Original Simulation        9  17  1977 Yr    3 of   46 Time   8:49:51
  Original Simulation        9  18  1977 Yr    3 of   46 Time   8:49:51
  Original Simulation        9  19  1977 Yr    3 of   46 Time   8:49:51
  Original Simulation        9  20  1977 Yr    3 of   46 Time   8:49:51
  Original Simulation        9  21  1977 Yr    3 of   46 Time   8:49:51
  Original Simulation        9  22  1977 Yr    3 of   46 Time   8:49:51
  Original Simulation        9  23  1977 Yr    3 of   46 Time   8:49:51
  Original Simulation        9  24  1977 Yr    3 of   46 Time   8:49:51
  Original Simulation        9  25  1977 Yr    3 of   46 Time   8:49:51
  Original Simulation        9  26  1977 Yr    3 of   46 Time   8:49:51
  Original Simulation        9  27  1977 Yr    3 of   46 Time   8:49:51
  Original Simulation        9  28  1977 Yr    3 of   46 Time   8:49:51
  Original Simulation        9  29  1977 Yr    3 of   46 Time   8:49:51
  Original Simulation        9  30  1977 Yr    3 of   46 Time   8:49:51
  Original Simulation       10   1  1977 Yr    3 of   46 Time   8:49:51
  Original Simulation       10   2  1977 Yr    3 of   46 Time   8:49:51
  Original Simulation       10   3  1977 Yr    3 of   46 Time   8:49:51
  Original Simulation       10   4  1977 Yr    3 of   46 Time   8:49:51
  Original Simulation       10   5  1977 Yr    3 of   46 Time   8:49:51
  Original Simulation       10   6  1977 Yr    3 of   46 Time   8:49:51
  Original Simulation       10   7  1977 Yr    3 of   46 Time   8:49:51
  Original Simulation       10   8  1977 Yr    3 of   46 Time   8:49:51
  Original Simulation       10   9  1977 Yr    3 of   46 Time   8:49:51
  Original Simulation       10  10  1977 Yr    3 of   46 Time   8:49:51
  Original Simulation       10  11  1977 Yr    3 of   46 Time   8:49:51
  Original Simulation       10  12  1977 Yr    3 of   46 Time   8:49:51
  Original Simulation       10  13  1977 Yr    3 of   46 Time   8:49:51
  Original Simulation       10  14  1977 Yr    3 of   46 Time   8:49:51
  Original Simulation       10  15  1977 Yr    3 of   46 Time   8:49:51
  Original Simulation       10  16  1977 Yr    3 of   46 Time   8:49:51
  Original Simulation       10  17  1977 Yr    3 of   46 Time   8:49:51
  Original Simulation       10  18  1977 Yr    3 of   46 Time   8:49:51
  Original Simulation       10  19  1977 Yr    3 of   46 Time   8:49:51
  Original Simulation       10  20  1977 Yr    3 of   46 Time   8:49:51
  Original Simulation       10  21  1977 Yr    3 of   46 Time   8:49:51
  Original Simulation       10  22  1977 Yr    3 of   46 Time   8:49:51
  Original Simulation       10  23  1977 Yr    3 of   46 Time   8:49:51
  Original Simulation       10  24  1977 Yr    3 of   46 Time   8:49:51
  Original Simulation       10  25  1977 Yr    3 of   46 Time   8:49:51
  Original Simulation       10  26  1977 Yr    3 of   46 Time   8:49:51
  Original Simulation       10  27  1977 Yr    3 of   46 Time   8:49:51
  Original Simulation       10  28  1977 Yr    3 of   46 Time   8:49:51
  Original Simulation       10  29  1977 Yr    3 of   46 Time   8:49:51
  Original Simulation       10  30  1977 Yr    3 of   46 Time   8:49:51
  Original Simulation       10  31  1977 Yr    3 of   46 Time   8:49:51
  Original Simulation       11   1  1977 Yr    3 of   46 Time   8:49:51
  Original Simulation       11   2  1977 Yr    3 of   46 Time   8:49:51
  Original Simulation       11   3  1977 Yr    3 of   46 Time   8:49:51
  Original Simulation       11   4  1977 Yr    3 of   46 Time   8:49:51
  Original Simulation       11   5  1977 Yr    3 of   46 Time   8:49:51
  Original Simulation       11   6  1977 Yr    3 of   46 Time   8:49:51
  Original Simulation       11   7  1977 Yr    3 of   46 Time   8:49:51
  Original Simulation       11   8  1977 Yr    3 of   46 Time   8:49:51
  Original Simulation       11   9  1977 Yr    3 of   46 Time   8:49:51
  Original Simulation       11  10  1977 Yr    3 of   46 Time   8:49:51
  Original Simulation       11  11  1977 Yr    3 of   46 Time   8:49:51
  Original Simulation       11  12  1977 Yr    3 of   46 Time   8:49:51
  Original Simulation       11  13  1977 Yr    3 of   46 Time   8:49:51
  Original Simulation       11  14  1977 Yr    3 of   46 Time   8:49:51
  Original Simulation       11  15  1977 Yr    3 of   46 Time   8:49:51
  Original Simulation       11  16  1977 Yr    3 of   46 Time   8:49:51
  Original Simulation       11  17  1977 Yr    3 of   46 Time   8:49:51
  Original Simulation       11  18  1977 Yr    3 of   46 Time   8:49:51
  Original Simulation       11  19  1977 Yr    3 of   46 Time   8:49:51
  Original Simulation       11  20  1977 Yr    3 of   46 Time   8:49:51
  Original Simulation       11  21  1977 Yr    3 of   46 Time   8:49:51
  Original Simulation       11  22  1977 Yr    3 of   46 Time   8:49:51
  Original Simulation       11  23  1977 Yr    3 of   46 Time   8:49:51
  Original Simulation       11  24  1977 Yr    3 of   46 Time   8:49:51
  Original Simulation       11  25  1977 Yr    3 of   46 Time   8:49:51
  Original Simulation       11  26  1977 Yr    3 of   46 Time   8:49:51
  Original Simulation       11  27  1977 Yr    3 of   46 Time   8:49:51
  Original Simulation       11  28  1977 Yr    3 of   46 Time   8:49:51
  Original Simulation       11  29  1977 Yr    3 of   46 Time   8:49:51
  Original Simulation       11  30  1977 Yr    3 of   46 Time   8:49:51
  Original Simulation       12   1  1977 Yr    3 of   46 Time   8:49:51
  Original Simulation       12   2  1977 Yr    3 of   46 Time   8:49:51
  Original Simulation       12   3  1977 Yr    3 of   46 Time   8:49:51
  Original Simulation       12   4  1977 Yr    3 of   46 Time   8:49:51
  Original Simulation       12   5  1977 Yr    3 of   46 Time   8:49:51
  Original Simulation       12   6  1977 Yr    3 of   46 Time   8:49:51
  Original Simulation       12   7  1977 Yr    3 of   46 Time   8:49:51
  Original Simulation       12   8  1977 Yr    3 of   46 Time   8:49:51
  Original Simulation       12   9  1977 Yr    3 of   46 Time   8:49:51
  Original Simulation       12  10  1977 Yr    3 of   46 Time   8:49:51
  Original Simulation       12  11  1977 Yr    3 of   46 Time   8:49:51
  Original Simulation       12  12  1977 Yr    3 of   46 Time   8:49:51
  Original Simulation       12  13  1977 Yr    3 of   46 Time   8:49:51
  Original Simulation       12  14  1977 Yr    3 of   46 Time   8:49:51
  Original Simulation       12  15  1977 Yr    3 of   46 Time   8:49:51
  Original Simulation       12  16  1977 Yr    3 of   46 Time   8:49:51
  Original Simulation       12  17  1977 Yr    3 of   46 Time   8:49:51
  Original Simulation       12  18  1977 Yr    3 of   46 Time   8:49:51
  Original Simulation       12  19  1977 Yr    3 of   46 Time   8:49:51
  Original Simulation       12  20  1977 Yr    3 of   46 Time   8:49:51
  Original Simulation       12  21  1977 Yr    3 of   46 Time   8:49:51
  Original Simulation       12  22  1977 Yr    3 of   46 Time   8:49:51
  Original Simulation       12  23  1977 Yr    3 of   46 Time   8:49:51
  Original Simulation       12  24  1977 Yr    3 of   46 Time   8:49:51
  Original Simulation       12  25  1977 Yr    3 of   46 Time   8:49:51
  Original Simulation       12  26  1977 Yr    3 of   46 Time   8:49:51
  Original Simulation       12  27  1977 Yr    3 of   46 Time   8:49:51
  Original Simulation       12  28  1977 Yr    3 of   46 Time   8:49:51
  Original Simulation       12  29  1977 Yr    3 of   46 Time   8:49:51
  Original Simulation       12  30  1977 Yr    3 of   46 Time   8:49:51
  Original Simulation       12  31  1977 Yr    3 of   46 Time   8:49:51
  Original Simulation        1   1  1978 Yr    4 of   46 Time   8:49:51
  Original Simulation        1   2  1978 Yr    4 of   46 Time   8:49:51
  Original Simulation        1   3  1978 Yr    4 of   46 Time   8:49:51
  Original Simulation        1   4  1978 Yr    4 of   46 Time   8:49:51
  Original Simulation        1   5  1978 Yr    4 of   46 Time   8:49:51
[...]
  Original Simulation        3  31  2020 Yr   46 of   46 Time   8:49:53
  Original Simulation        4   1  2020 Yr   46 of   46 Time   8:49:53
  Original Simulation        4   2  2020 Yr   46 of   46 Time   8:49:53
  Original Simulation        4   3  2020 Yr   46 of   46 Time   8:49:53
  Original Simulation        4   4  2020 Yr   46 of   46 Time   8:49:53
  Original Simulation        4   5  2020 Yr   46 of   46 Time   8:49:53
  Original Simulation        4   6  2020 Yr   46 of   46 Time   8:49:53
  Original Simulation        4   7  2020 Yr   46 of   46 Time   8:49:53
  Original Simulation        4   8  2020 Yr   46 of   46 Time   8:49:53
  Original Simulation        4   9  2020 Yr   46 of   46 Time   8:49:53
  Original Simulation        4  10  2020 Yr   46 of   46 Time   8:49:53
  Original Simulation        4  11  2020 Yr   46 of   46 Time   8:49:53
  Original Simulation        4  12  2020 Yr   46 of   46 Time   8:49:53
  Original Simulation        4  13  2020 Yr   46 of   46 Time   8:49:53
  Original Simulation        4  14  2020 Yr   46 of   46 Time   8:49:53
  Original Simulation        4  15  2020 Yr   46 of   46 Time   8:49:53
  Original Simulation        4  16  2020 Yr   46 of   46 Time   8:49:53
  Original Simulation        4  17  2020 Yr   46 of   46 Time   8:49:53
  Original Simulation        4  18  2020 Yr   46 of   46 Time   8:49:53
  Original Simulation        4  19  2020 Yr   46 of   46 Time   8:49:53
  Original Simulation        4  20  2020 Yr   46 of   46 Time   8:49:53
  Original Simulation        4  21  2020 Yr   46 of   46 Time   8:49:53
  Original Simulation        4  22  2020 Yr   46 of   46 Time   8:49:53
  Original Simulation        4  23  2020 Yr   46 of   46 Time   8:49:53
  Original Simulation        4  24  2020 Yr   46 of   46 Time   8:49:53
  Original Simulation        4  25  2020 Yr   46 of   46 Time   8:49:53
  Original Simulation        4  26  2020 Yr   46 of   46 Time   8:49:53
  Original Simulation        4  27  2020 Yr   46 of   46 Time   8:49:53
  Original Simulation        4  28  2020 Yr   46 of   46 Time   8:49:53
  Original Simulation        4  29  2020 Yr   46 of   46 Time   8:49:53
  Original Simulation        4  30  2020 Yr   46 of   46 Time   8:49:53
  Original Simulation        5   1  2020 Yr   46 of   46 Time   8:49:53
  Original Simulation        5   2  2020 Yr   46 of   46 Time   8:49:53
  Original Simulation        5   3  2020 Yr   46 of   46 Time   8:49:53
  Original Simulation        5   4  2020 Yr   46 of   46 Time   8:49:53
  Original Simulation        5   5  2020 Yr   46 of   46 Time   8:49:53
  Original Simulation        5   6  2020 Yr   46 of   46 Time   8:49:53
  Original Simulation        5   7  2020 Yr   46 of   46 Time   8:49:53
  Original Simulation        5   8  2020 Yr   46 of   46 Time   8:49:53
  Original Simulation        5   9  2020 Yr   46 of   46 Time   8:49:53
  Original Simulation        5  10  2020 Yr   46 of   46 Time   8:49:53
  Original Simulation        5  11  2020 Yr   46 of   46 Time   8:49:53
  Original Simulation        5  12  2020 Yr   46 of   46 Time   8:49:53
  Original Simulation        5  13  2020 Yr   46 of   46 Time   8:49:53
  Original Simulation        5  14  2020 Yr   46 of   46 Time   8:49:53
  Original Simulation        5  15  2020 Yr   46 of   46 Time   8:49:53
  Original Simulation        5  16  2020 Yr   46 of   46 Time   8:49:53
  Original Simulation        5  17  2020 Yr   46 of   46 Time   8:49:53
  Original Simulation        5  18  2020 Yr   46 of   46 Time   8:49:53
  Original Simulation        5  19  2020 Yr   46 of   46 Time   8:49:53
  Original Simulation        5  20  2020 Yr   46 of   46 Time   8:49:53
  Original Simulation        5  21  2020 Yr   46 of   46 Time   8:49:53
  Original Simulation        5  22  2020 Yr   46 of   46 Time   8:49:53
  Original Simulation        5  23  2020 Yr   46 of   46 Time   8:49:53
  Original Simulation        5  24  2020 Yr   46 of   46 Time   8:49:53
  Original Simulation        5  25  2020 Yr   46 of   46 Time   8:49:53
  Original Simulation        5  26  2020 Yr   46 of   46 Time   8:49:53
  Original Simulation        5  27  2020 Yr   46 of   46 Time   8:49:53
  Original Simulation        5  28  2020 Yr   46 of   46 Time   8:49:53
  Original Simulation        5  29  2020 Yr   46 of   46 Time   8:49:53
  Original Simulation        5  30  2020 Yr   46 of   46 Time   8:49:53
  Original Simulation        5  31  2020 Yr   46 of   46 Time   8:49:53
  Original Simulation        6   1  2020 Yr   46 of   46 Time   8:49:53
  Original Simulation        6   2  2020 Yr   46 of   46 Time   8:49:53
  Original Simulation        6   3  2020 Yr   46 of   46 Time   8:49:53
  Original Simulation        6   4  2020 Yr   46 of   46 Time   8:49:53
  Original Simulation        6   5  2020 Yr   46 of   46 Time   8:49:53
  Original Simulation        6   6  2020 Yr   46 of   46 Time   8:49:53
  Original Simulation        6   7  2020 Yr   46 of   46 Time   8:49:53
  Original Simulation        6   8  2020 Yr   46 of   46 Time   8:49:53
  Original Simulation        6   9  2020 Yr   46 of   46 Time   8:49:53
  Original Simulation        6  10  2020 Yr   46 of   46 Time   8:49:53
  Original Simulation        6  11  2020 Yr   46 of   46 Time   8:49:53
  Original Simulation        6  12  2020 Yr   46 of   46 Time   8:49:53
  Original Simulation        6  13  2020 Yr   46 of   46 Time   8:49:53
  Original Simulation        6  14  2020 Yr   46 of   46 Time   8:49:53
  Original Simulation        6  15  2020 Yr   46 of   46 Time   8:49:53
  Original Simulation        6  16  2020 Yr   46 of   46 Time   8:49:53
  Original Simulation        6  17  2020 Yr   46 of   46 Time   8:49:53
  Original Simulation        6  18  2020 Yr   46 of   46 Time   8:49:53
  Original Simulation        6  19  2020 Yr   46 of   46 Time   8:49:53
  Original Simulation        6  20  2020 Yr   46 of   46 Time   8:49:53
  Original Simulation        6  21  2020 Yr   46 of   46 Time   8:49:53
  Original Simulation        6  22  2020 Yr   46 of   46 Time   8:49:53
  Original Simulation        6  23  2020 Yr   46 of   46 Time   8:49:53
  Original Simulation        6  24  2020 Yr   46 of   46 Time   8:49:53
  Original Simulation        6  25  2020 Yr   46 of   46 Time   8:49:53
  Original Simulation        6  26  2020 Yr   46 of   46 Time   8:49:53
  Original Simulation        6  27  2020 Yr   46 of   46 Time   8:49:53
  Original Simulation        6  28  2020 Yr   46 of   46 Time   8:49:53
  Original Simulation        6  29  2020 Yr   46 of   46 Time   8:49:53
  Original Simulation        6  30  2020 Yr   46 of   46 Time   8:49:53
  Original Simulation        7   1  2020 Yr   46 of   46 Time   8:49:53
  Original Simulation        7   2  2020 Yr   46 of   46 Time   8:49:53
  Original Simulation        7   3  2020 Yr   46 of   46 Time   8:49:53
  Original Simulation        7   4  2020 Yr   46 of   46 Time   8:49:53
  Original Simulation        7   5  2020 Yr   46 of   46 Time   8:49:53
  Original Simulation        7   6  2020 Yr   46 of   46 Time   8:49:53
  Original Simulation        7   7  2020 Yr   46 of   46 Time   8:49:53
  Original Simulation        7   8  2020 Yr   46 of   46 Time   8:49:53
  Original Simulation        7   9  2020 Yr   46 of   46 Time   8:49:53
  Original Simulation        7  10  2020 Yr   46 of   46 Time   8:49:53
  Original Simulation        7  11  2020 Yr   46 of   46 Time   8:49:53
  Original Simulation        7  12  2020 Yr   46 of   46 Time   8:49:53
  Original Simulation        7  13  2020 Yr   46 of   46 Time   8:49:53
  Original Simulation        7  14  2020 Yr   46 of   46 Time   8:49:53
  Original Simulation        7  15  2020 Yr   46 of   46 Time   8:49:53
  Original Simulation        7  16  2020 Yr   46 of   46 Time   8:49:53
  Original Simulation        7  17  2020 Yr   46 of   46 Time   8:49:53
  Original Simulation        7  18  2020 Yr   46 of   46 Time   8:49:53
  Original Simulation        7  19  2020 Yr   46 of   46 Time   8:49:53
  Original Simulation        7  20  2020 Yr   46 of   46 Time   8:49:53
  Original Simulation        7  21  2020 Yr   46 of   46 Time   8:49:53
  Original Simulation        7  22  2020 Yr   46 of   46 Time   8:49:53
  Original Simulation        7  23  2020 Yr   46 of   46 Time   8:49:53
  Original Simulation        7  24  2020 Yr   46 of   46 Time   8:49:53
  Original Simulation        7  25  2020 Yr   46 of   46 Time   8:49:53
  Original Simulation        7  26  2020 Yr   46 of   46 Time   8:49:53
  Original Simulation        7  27  2020 Yr   46 of   46 Time   8:49:53
  Original Simulation        7  28  2020 Yr   46 of   46 Time   8:49:53
  Original Simulation        7  29  2020 Yr   46 of   46 Time   8:49:53
  Original Simulation        7  30  2020 Yr   46 of   46 Time   8:49:53
  Original Simulation        7  31  2020 Yr   46 of   46 Time   8:49:53
  Original Simulation        8   1  2020 Yr   46 of   46 Time   8:49:53
  Original Simulation        8   2  2020 Yr   46 of   46 Time   8:49:53
  Original Simulation        8   3  2020 Yr   46 of   46 Time   8:49:53
  Original Simulation        8   4  2020 Yr   46 of   46 Time   8:49:53
  Original Simulation        8   5  2020 Yr   46 of   46 Time   8:49:53
  Original Simulation        8   6  2020 Yr   46 of   46 Time   8:49:53
  Original Simulation        8   7  2020 Yr   46 of   46 Time   8:49:53
  Original Simulation        8   8  2020 Yr   46 of   46 Time   8:49:53
  Original Simulation        8   9  2020 Yr   46 of   46 Time   8:49:53
  Original Simulation        8  10  2020 Yr   46 of   46 Time   8:49:53
  Original Simulation        8  11  2020 Yr   46 of   46 Time   8:49:53
  Original Simulation        8  12  2020 Yr   46 of   46 Time   8:49:53
  Original Simulation        8  13  2020 Yr   46 of   46 Time   8:49:53
  Original Simulation        8  14  2020 Yr   46 of   46 Time   8:49:53
  Original Simulation        8  15  2020 Yr   46 of   46 Time   8:49:53
  Original Simulation        8  16  2020 Yr   46 of   46 Time   8:49:53
  Original Simulation        8  17  2020 Yr   46 of   46 Time   8:49:53
  Original Simulation        8  18  2020 Yr   46 of   46 Time   8:49:53
  Original Simulation        8  19  2020 Yr   46 of   46 Time   8:49:53
  Original Simulation        8  20  2020 Yr   46 of   46 Time   8:49:53
  Original Simulation        8  21  2020 Yr   46 of   46 Time   8:49:53
  Original Simulation        8  22  2020 Yr   46 of   46 Time   8:49:53
  Original Simulation        8  23  2020 Yr   46 of   46 Time   8:49:53
  Original Simulation        8  24  2020 Yr   46 of   46 Time   8:49:53
  Original Simulation        8  25  2020 Yr   46 of   46 Time   8:49:53
  Original Simulation        8  26  2020 Yr   46 of   46 Time   8:49:53
  Original Simulation        8  27  2020 Yr   46 of   46 Time   8:49:53
  Original Simulation        8  28  2020 Yr   46 of   46 Time   8:49:53
  Original Simulation        8  29  2020 Yr   46 of   46 Time   8:49:53
  Original Simulation        8  30  2020 Yr   46 of   46 Time   8:49:53
  Original Simulation        8  31  2020 Yr   46 of   46 Time   8:49:53
  Original Simulation        9   1  2020 Yr   46 of   46 Time   8:49:53
  Original Simulation        9   2  2020 Yr   46 of   46 Time   8:49:53
  Original Simulation        9   3  2020 Yr   46 of   46 Time   8:49:53
  Original Simulation        9   4  2020 Yr   46 of   46 Time   8:49:53
  Original Simulation        9   5  2020 Yr   46 of   46 Time   8:49:53
  Original Simulation        9   6  2020 Yr   46 of   46 Time   8:49:53
  Original Simulation        9   7  2020 Yr   46 of   46 Time   8:49:53
  Original Simulation        9   8  2020 Yr   46 of   46 Time   8:49:53
  Original Simulation        9   9  2020 Yr   46 of   46 Time   8:49:53
  Original Simulation        9  10  2020 Yr   46 of   46 Time   8:49:53
  Original Simulation        9  11  2020 Yr   46 of   46 Time   8:49:53
  Original Simulation        9  12  2020 Yr   46 of   46 Time   8:49:53
  Original Simulation        9  13  2020 Yr   46 of   46 Time   8:49:53
  Original Simulation        9  14  2020 Yr   46 of   46 Time   8:49:53
  Original Simulation        9  15  2020 Yr   46 of   46 Time   8:49:53
  Original Simulation        9  16  2020 Yr   46 of   46 Time   8:49:53
  Original Simulation        9  17  2020 Yr   46 of   46 Time   8:49:53
  Original Simulation        9  18  2020 Yr   46 of   46 Time   8:49:53
  Original Simulation        9  19  2020 Yr   46 of   46 Time   8:49:53
  Original Simulation        9  20  2020 Yr   46 of   46 Time   8:49:53
  Original Simulation        9  21  2020 Yr   46 of   46 Time   8:49:53
  Original Simulation        9  22  2020 Yr   46 of   46 Time   8:49:53
  Original Simulation        9  23  2020 Yr   46 of   46 Time   8:49:53
  Original Simulation        9  24  2020 Yr   46 of   46 Time   8:49:53
  Original Simulation        9  25  2020 Yr   46 of   46 Time   8:49:53
  Original Simulation        9  26  2020 Yr   46 of   46 Time   8:49:53
  Original Simulation        9  27  2020 Yr   46 of   46 Time   8:49:53
  Original Simulation        9  28  2020 Yr   46 of   46 Time   8:49:53
  Original Simulation        9  29  2020 Yr   46 of   46 Time   8:49:53
  Original Simulation        9  30  2020 Yr   46 of   46 Time   8:49:53
  Original Simulation       10   1  2020 Yr   46 of   46 Time   8:49:53
  Original Simulation       10   2  2020 Yr   46 of   46 Time   8:49:53
  Original Simulation       10   3  2020 Yr   46 of   46 Time   8:49:53
  Original Simulation       10   4  2020 Yr   46 of   46 Time   8:49:53
  Original Simulation       10   5  2020 Yr   46 of   46 Time   8:49:53
  Original Simulation       10   6  2020 Yr   46 of   46 Time   8:49:53
  Original Simulation       10   7  2020 Yr   46 of   46 Time   8:49:53
  Original Simulation       10   8  2020 Yr   46 of   46 Time   8:49:53
  Original Simulation       10   9  2020 Yr   46 of   46 Time   8:49:53
  Original Simulation       10  10  2020 Yr   46 of   46 Time   8:49:53
  Original Simulation       10  11  2020 Yr   46 of   46 Time   8:49:53
  Original Simulation       10  12  2020 Yr   46 of   46 Time   8:49:53
  Original Simulation       10  13  2020 Yr   46 of   46 Time   8:49:53
  Original Simulation       10  14  2020 Yr   46 of   46 Time   8:49:53
  Original Simulation       10  15  2020 Yr   46 of   46 Time   8:49:53
  Original Simulation       10  16  2020 Yr   46 of   46 Time   8:49:53
  Original Simulation       10  17  2020 Yr   46 of   46 Time   8:49:53
  Original Simulation       10  18  2020 Yr   46 of   46 Time   8:49:53
  Original Simulation       10  19  2020 Yr   46 of   46 Time   8:49:53
  Original Simulation       10  20  2020 Yr   46 of   46 Time   8:49:53
  Original Simulation       10  21  2020 Yr   46 of   46 Time   8:49:53
  Original Simulation       10  22  2020 Yr   46 of   46 Time   8:49:53
  Original Simulation       10  23  2020 Yr   46 of   46 Time   8:49:53
  Original Simulation       10  24  2020 Yr   46 of   46 Time   8:49:53
  Original Simulation       10  25  2020 Yr   46 of   46 Time   8:49:53
  Original Simulation       10  26  2020 Yr   46 of   46 Time   8:49:53
  Original Simulation       10  27  2020 Yr   46 of   46 Time   8:49:53
  Original Simulation       10  28  2020 Yr   46 of   46 Time   8:49:53
  Original Simulation       10  29  2020 Yr   46 of   46 Time   8:49:53
  Original Simulation       10  30  2020 Yr   46 of   46 Time   8:49:53
  Original Simulation       10  31  2020 Yr   46 of   46 Time   8:49:53
  Original Simulation       11   1  2020 Yr   46 of   46 Time   8:49:53
  Original Simulation       11   2  2020 Yr   46 of   46 Time   8:49:53
  Original Simulation       11   3  2020 Yr   46 of   46 Time   8:49:53
  Original Simulation       11   4  2020 Yr   46 of   46 Time   8:49:53
  Original Simulation       11   5  2020 Yr   46 of   46 Time   8:49:53
  Original Simulation       11   6  2020 Yr   46 of   46 Time   8:49:53
  Original Simulation       11   7  2020 Yr   46 of   46 Time   8:49:53
  Original Simulation       11   8  2020 Yr   46 of   46 Time   8:49:53
  Original Simulation       11   9  2020 Yr   46 of   46 Time   8:49:53
  Original Simulation       11  10  2020 Yr   46 of   46 Time   8:49:53
  Original Simulation       11  11  2020 Yr   46 of   46 Time   8:49:53
  Original Simulation       11  12  2020 Yr   46 of   46 Time   8:49:53
  Original Simulation       11  13  2020 Yr   46 of   46 Time   8:49:53
  Original Simulation       11  14  2020 Yr   46 of   46 Time   8:49:53
  Original Simulation       11  15  2020 Yr   46 of   46 Time   8:49:53
  Original Simulation       11  16  2020 Yr   46 of   46 Time   8:49:53
  Original Simulation       11  17  2020 Yr   46 of   46 Time   8:49:53
  Original Simulation       11  18  2020 Yr   46 of   46 Time   8:49:53
  Original Simulation       11  19  2020 Yr   46 of   46 Time   8:49:53
  Original Simulation       11  20  2020 Yr   46 of   46 Time   8:49:53
  Original Simulation       11  21  2020 Yr   46 of   46 Time   8:49:53
  Original Simulation       11  22  2020 Yr   46 of   46 Time   8:49:53
  Original Simulation       11  23  2020 Yr   46 of   46 Time   8:49:53
  Original Simulation       11  24  2020 Yr   46 of   46 Time   8:49:53
  Original Simulation       11  25  2020 Yr   46 of   46 Time   8:49:53
  Original Simulation       11  26  2020 Yr   46 of   46 Time   8:49:53
  Original Simulation       11  27  2020 Yr   46 of   46 Time   8:49:53
  Original Simulation       11  28  2020 Yr   46 of   46 Time   8:49:53
  Original Simulation       11  29  2020 Yr   46 of   46 Time   8:49:53
  Original Simulation       11  30  2020 Yr   46 of   46 Time   8:49:53
  Original Simulation       12   1  2020 Yr   46 of   46 Time   8:49:53
  Original Simulation       12   2  2020 Yr   46 of   46 Time   8:49:53
  Original Simulation       12   3  2020 Yr   46 of   46 Time   8:49:53
  Original Simulation       12   4  2020 Yr   46 of   46 Time   8:49:53
  Original Simulation       12   5  2020 Yr   46 of   46 Time   8:49:53
  Original Simulation       12   6  2020 Yr   46 of   46 Time   8:49:53
  Original Simulation       12   7  2020 Yr   46 of   46 Time   8:49:53
  Original Simulation       12   8  2020 Yr   46 of   46 Time   8:49:53
  Original Simulation       12   9  2020 Yr   46 of   46 Time   8:49:53
  Original Simulation       12  10  2020 Yr   46 of   46 Time   8:49:53
  Original Simulation       12  11  2020 Yr   46 of   46 Time   8:49:53
  Original Simulation       12  12  2020 Yr   46 of   46 Time   8:49:53
  Original Simulation       12  13  2020 Yr   46 of   46 Time   8:49:53
  Original Simulation       12  14  2020 Yr   46 of   46 Time   8:49:53
  Original Simulation       12  15  2020 Yr   46 of   46 Time   8:49:53
  Original Simulation       12  16  2020 Yr   46 of   46 Time   8:49:53
  Original Simulation       12  17  2020 Yr   46 of   46 Time   8:49:53
  Original Simulation       12  18  2020 Yr   46 of   46 Time   8:49:53
  Original Simulation       12  19  2020 Yr   46 of   46 Time   8:49:53
  Original Simulation       12  20  2020 Yr   46 of   46 Time   8:49:53
  Original Simulation       12  21  2020 Yr   46 of   46 Time   8:49:53
  Original Simulation       12  22  2020 Yr   46 of   46 Time   8:49:53
  Original Simulation       12  23  2020 Yr   46 of   46 Time   8:49:53
  Original Simulation       12  24  2020 Yr   46 of   46 Time   8:49:53
  Original Simulation       12  25  2020 Yr   46 of   46 Time   8:49:53
  Original Simulation       12  26  2020 Yr   46 of   46 Time   8:49:53
  Original Simulation       12  27  2020 Yr   46 of   46 Time   8:49:53
  Original Simulation       12  28  2020 Yr   46 of   46 Time   8:49:53
  Original Simulation       12  29  2020 Yr   46 of   46 Time   8:49:53
  Original Simulation       12  30  2020 Yr   46 of   46 Time   8:49:53
  Original Simulation       12  31  2020 Yr   46 of   46 Time   8:49:53

 Execution successfully completed 

  Date of Sim   8/27/2024 Time   8:49:53
